 xtb: 6.5.1 (b24c23e)
          07302207123D

266305  0     0  0            999 V2000
   51.1326    0.0878    0.0214 Co  0  0  0  0  0  0  0  0  0  0  0  0
   47.7672    0.2175    0.0597 C   0  0  0  0  0  0  0  0  0  0  0  0
   48.4153   -0.3480    1.1373 C   0  0  0  0  0  0  0  0  0  0  0  0
   47.7505   -0.9270    2.2650 C   0  0  0  0  0  0  0  0  0  0  0  0
   48.7058   -1.1865    3.1887 C   0  0  0  0  0  0  0  0  0  0  0  0
   49.9519   -0.7465    2.6312 C   0  0  0  0  0  0  0  0  0  0  0  0
   49.7711   -0.3053    1.3455 N   0  0  0  0  0  0  0  0  0  0  0  0
   51.1416   -0.6473    3.3414 C   0  0  0  0  0  0  0  0  0  0  0  0
   51.1516   -0.9814    4.7828 C   0  0  0  0  0  0  0  0  0  0  0  0
   50.3157   -0.3026    5.6734 C   0  0  0  0  0  0  0  0  0  0  0  0
   50.3235   -0.6154    7.0227 C   0  0  0  0  0  0  0  0  0  0  0  0
   51.1720   -1.6156    7.4688 C   0  0  0  0  0  0  0  0  0  0  0  0
   51.1929   -2.0130    9.1763 S   0  0  0  0  0  0  0  0  0  0  0  0
   50.6894   -0.9250    9.9621 O   0  0  0  0  0  0  0  0  0  0  0  0
   50.0667   -3.1828    9.1592 O   0  0  0  0  0  0  0  0  0  0  0  0
   52.4481   -2.5987    9.5436 O   0  0  0  0  0  0  0  0  0  0  0  0
   52.0153   -2.3035    6.6114 C   0  0  0  0  0  0  0  0  0  0  0  0
   52.0020   -1.9801    5.2649 C   0  0  0  0  0  0  0  0  0  0  0  0
   52.3219   -0.2362    2.7377 C   0  0  0  0  0  0  0  0  0  0  0  0
   53.5579   -0.0267    3.4304 C   0  0  0  0  0  0  0  0  0  0  0  0
   54.5065    0.1775    2.4843 C   0  0  0  0  0  0  0  0  0  0  0  0
   52.5024   -0.0864    1.3828 N   0  0  0  0  0  0  0  0  0  0  0  0
   53.8475    0.0971    1.2191 C   0  0  0  0  0  0  0  0  0  0  0  0
   54.5186    0.0226   -0.0039 C   0  0  0  0  0  0  0  0  0  0  0  0
   53.8282   -0.0444   -1.2169 C   0  0  0  0  0  0  0  0  0  0  0  0
   54.4642   -0.1764   -2.4893 C   0  0  0  0  0  0  0  0  0  0  0  0
   53.5063    0.0280   -3.4260 C   0  0  0  0  0  0  0  0  0  0  0  0
   52.2896    0.2982   -2.7202 C   0  0  0  0  0  0  0  0  0  0  0  0
   52.4873    0.1766   -1.3644 N   0  0  0  0  0  0  0  0  0  0  0  0
   51.1199    0.7510   -3.3136 C   0  0  0  0  0  0  0  0  0  0  0  0
   51.1130    1.0402   -4.7649 C   0  0  0  0  0  0  0  0  0  0  0  0
   50.2167    0.3823   -5.6113 C   0  0  0  0  0  0  0  0  0  0  0  0
   50.2032    0.6541   -6.9693 C   0  0  0  0  0  0  0  0  0  0  0  0
   51.0926    1.5916   -7.4689 C   0  0  0  0  0  0  0  0  0  0  0  0
   51.0693    1.9516   -9.1847 S   0  0  0  0  0  0  0  0  0  0  0  0
   51.6299    3.2450   -9.4453 O   0  0  0  0  0  0  0  0  0  0  0  0
   52.1417    0.8344   -9.6745 O   0  0  0  0  0  0  0  0  0  0  0  0
   49.7920    1.6326   -9.7500 O   0  0  0  0  0  0  0  0  0  0  0  0
   51.9896    2.2637   -6.6547 C   0  0  0  0  0  0  0  0  0  0  0  0
   51.9975    1.9811   -5.2988 C   0  0  0  0  0  0  0  0  0  0  0  0
   49.9558    0.9486   -2.5813 C   0  0  0  0  0  0  0  0  0  0  0  0
   48.7348    1.4731   -3.1207 C   0  0  0  0  0  0  0  0  0  0  0  0
   47.7881    1.3231   -2.1646 C   0  0  0  0  0  0  0  0  0  0  0  0
   48.4328    0.7173   -1.0391 C   0  0  0  0  0  0  0  0  0  0  0  0
   49.7746    0.5561   -1.2805 N   0  0  0  0  0  0  0  0  0  0  0  0
   46.6848    0.2640    0.0736 H   0  0  0  0  0  0  0  0  0  0  0  0
   46.6879   -1.0996    2.3253 H   0  0  0  0  0  0  0  0  0  0  0  0
   48.5899   -1.6302    4.1642 H   0  0  0  0  0  0  0  0  0  0  0  0
   49.6700    0.4868    5.3067 H   0  0  0  0  0  0  0  0  0  0  0  0
   49.6872   -0.0888    7.7228 H   0  0  0  0  0  0  0  0  0  0  0  0
   49.8701   -3.4708   10.0589 H   0  0  0  0  0  0  0  0  0  0  0  0
   52.6705   -3.0753    6.9954 H   0  0  0  0  0  0  0  0  0  0  0  0
   52.6450   -2.5146    4.5753 H   0  0  0  0  0  0  0  0  0  0  0  0
   53.6735   -0.0357    4.5019 H   0  0  0  0  0  0  0  0  0  0  0  0
   55.5620    0.3542    2.6145 H   0  0  0  0  0  0  0  0  0  0  0  0
   55.5116   -0.3891   -2.6308 H   0  0  0  0  0  0  0  0  0  0  0  0
   53.6045    0.0036   -4.4991 H   0  0  0  0  0  0  0  0  0  0  0  0
   49.5368   -0.3558   -5.2021 H   0  0  0  0  0  0  0  0  0  0  0  0
   49.5119    0.1514   -7.6339 H   0  0  0  0  0  0  0  0  0  0  0  0
   52.3479    0.9570  -10.6092 H   0  0  0  0  0  0  0  0  0  0  0  0
   52.6623    2.9997   -7.0768 H   0  0  0  0  0  0  0  0  0  0  0  0
   52.6812    2.5064   -4.6423 H   0  0  0  0  0  0  0  0  0  0  0  0
   48.6290    1.8970   -4.1061 H   0  0  0  0  0  0  0  0  0  0  0  0
   46.7423    1.5831   -2.2026 H   0  0  0  0  0  0  0  0  0  0  0  0
   91.2715    0.0783   -0.0029 Co  0  0  0  0  0  0  0  0  0  0  0  0
   94.6379    0.1997    0.0006 C   0  0  0  0  0  0  0  0  0  0  0  0
   93.9865    0.0648   -1.2068 C   0  0  0  0  0  0  0  0  0  0  0  0
   94.6483   -0.0682   -2.4690 C   0  0  0  0  0  0  0  0  0  0  0  0
   93.6916    0.0259   -3.4221 C   0  0  0  0  0  0  0  0  0  0  0  0
   92.4469    0.2364   -2.7413 C   0  0  0  0  0  0  0  0  0  0  0  0
   92.6302    0.1812   -1.3829 N   0  0  0  0  0  0  0  0  0  0  0  0
   91.2576    0.5863   -3.3660 C   0  0  0  0  0  0  0  0  0  0  0  0
   91.2461    0.7980   -4.8306 C   0  0  0  0  0  0  0  0  0  0  0  0
   92.0779    1.7579   -5.4129 C   0  0  0  0  0  0  0  0  0  0  0  0
   92.0687    1.9585   -6.7833 C   0  0  0  0  0  0  0  0  0  0  0  0
   91.2233    1.1860   -7.5629 C   0  0  0  0  0  0  0  0  0  0  0  0
   91.2009    1.4388   -9.2976 S   0  0  0  0  0  0  0  0  0  0  0  0
   91.7002    2.7404   -9.6310 O   0  0  0  0  0  0  0  0  0  0  0  0
   92.3289    0.3448   -9.7084 O   0  0  0  0  0  0  0  0  0  0  0  0
   89.9478    1.0235   -9.8554 O   0  0  0  0  0  0  0  0  0  0  0  0
   90.3845    0.2291   -7.0149 C   0  0  0  0  0  0  0  0  0  0  0  0
   90.3988    0.0398   -5.6430 C   0  0  0  0  0  0  0  0  0  0  0  0
   90.0785    0.7524   -2.6523 C   0  0  0  0  0  0  0  0  0  0  0  0
   88.8420    1.1974   -3.2216 C   0  0  0  0  0  0  0  0  0  0  0  0
   87.8947    1.0489   -2.2643 C   0  0  0  0  0  0  0  0  0  0  0  0
   89.9004    0.4059   -1.3341 N   0  0  0  0  0  0  0  0  0  0  0  0
   88.5544    0.5194   -1.1128 C   0  0  0  0  0  0  0  0  0  0  0  0
   87.8857    0.0161    0.0033 C   0  0  0  0  0  0  0  0  0  0  0  0
   88.5748   -0.4792    1.1107 C   0  0  0  0  0  0  0  0  0  0  0  0
   87.9387   -1.0545    2.2533 C   0  0  0  0  0  0  0  0  0  0  0  0
   88.8982   -1.2060    3.1980 C   0  0  0  0  0  0  0  0  0  0  0  0
   90.1166   -0.7085    2.6331 C   0  0  0  0  0  0  0  0  0  0  0  0
   89.9188   -0.3349    1.3245 N   0  0  0  0  0  0  0  0  0  0  0  0
   91.2896   -0.5085    3.3475 C   0  0  0  0  0  0  0  0  0  0  0  0
   91.2979   -0.7621    4.8054 C   0  0  0  0  0  0  0  0  0  0  0  0
   92.1891   -1.6869    5.3559 C   0  0  0  0  0  0  0  0  0  0  0  0
   92.2045   -1.9225    6.7207 C   0  0  0  0  0  0  0  0  0  0  0  0
   91.3219   -1.2218    7.5266 C   0  0  0  0  0  0  0  0  0  0  0  0
   91.3489   -1.5020    9.2571 S   0  0  0  0  0  0  0  0  0  0  0  0
   90.7974   -0.3851    9.9668 O   0  0  0  0  0  0  0  0  0  0  0  0
   90.2686   -2.7135    9.3184 O   0  0  0  0  0  0  0  0  0  0  0  0
   92.6247   -2.0101    9.6658 O   0  0  0  0  0  0  0  0  0  0  0  0
   90.4295   -0.2958    7.0112 C   0  0  0  0  0  0  0  0  0  0  0  0
   90.4199   -0.0710    5.6446 C   0  0  0  0  0  0  0  0  0  0  0  0
   92.4540   -0.0675    2.7328 C   0  0  0  0  0  0  0  0  0  0  0  0
   93.6783    0.2209    3.4218 C   0  0  0  0  0  0  0  0  0  0  0  0
   94.6232    0.4237    2.4739 C   0  0  0  0  0  0  0  0  0  0  0  0
   93.9749    0.2692    1.2070 C   0  0  0  0  0  0  0  0  0  0  0  0
   92.6324    0.0369    1.3771 N   0  0  0  0  0  0  0  0  0  0  0  0
   95.7203    0.2454    0.0020 H   0  0  0  0  0  0  0  0  0  0  0  0
   95.7106   -0.2091   -2.5895 H   0  0  0  0  0  0  0  0  0  0  0  0
   93.8052   -0.0347   -4.4924 H   0  0  0  0  0  0  0  0  0  0  0  0
   92.7216    2.3617   -4.7839 H   0  0  0  0  0  0  0  0  0  0  0  0
   92.7016    2.7068   -7.2437 H   0  0  0  0  0  0  0  0  0  0  0  0
   92.4886    0.3701  -10.6597 H   0  0  0  0  0  0  0  0  0  0  0  0
   89.7317   -0.3527   -7.6536 H   0  0  0  0  0  0  0  0  0  0  0  0
   89.7588   -0.7117   -5.1954 H   0  0  0  0  0  0  0  0  0  0  0  0
   88.7255    1.5736   -4.2249 H   0  0  0  0  0  0  0  0  0  0  0  0
   86.8394    1.2619   -2.3206 H   0  0  0  0  0  0  0  0  0  0  0  0
   86.8899   -1.2970    2.3119 H   0  0  0  0  0  0  0  0  0  0  0  0
   88.8001   -1.6133    4.1911 H   0  0  0  0  0  0  0  0  0  0  0  0
   92.8637   -2.2327    4.7068 H   0  0  0  0  0  0  0  0  0  0  0  0
   92.8922   -2.6354    7.1580 H   0  0  0  0  0  0  0  0  0  0  0  0
   90.0494   -2.9183   10.2356 H   0  0  0  0  0  0  0  0  0  0  0  0
   89.7619    0.2431    7.6718 H   0  0  0  0  0  0  0  0  0  0  0  0
   89.7399    0.6601    5.2231 H   0  0  0  0  0  0  0  0  0  0  0  0
   93.7870    0.2587    4.4936 H   0  0  0  0  0  0  0  0  0  0  0  0
   95.6701    0.6482    2.6006 H   0  0  0  0  0  0  0  0  0  0  0  0
   57.1447   -0.0015   -0.0177 C   0  0  0  0  0  0  0  0  0  0  0  0
   55.9225    0.0077   -0.0136 C   0  0  0  0  0  0  0  0  0  0  0  0
   58.4940   -0.0093   -0.0248 C   0  0  0  0  0  0  0  0  0  0  0  0
   59.7166   -0.0147   -0.0274 C   0  0  0  0  0  0  0  0  0  0  0  0
   70.5248   -0.0504   -0.0137 C   0  0  0  0  0  0  0  0  0  0  0  0
   69.3017   -0.0453   -0.0143 C   0  0  0  0  0  0  0  0  0  0  0  0
   71.8727   -0.0508   -0.0148 C   0  0  0  0  0  0  0  0  0  0  0  0
   73.0958   -0.0517   -0.0133 C   0  0  0  0  0  0  0  0  0  0  0  0
   83.9055   -0.0291    0.0151 C   0  0  0  0  0  0  0  0  0  0  0  0
   82.6844   -0.0332    0.0115 C   0  0  0  0  0  0  0  0  0  0  0  0
   85.2575   -0.0166    0.0120 C   0  0  0  0  0  0  0  0  0  0  0  0
   86.4783   -0.0008    0.0089 C   0  0  0  0  0  0  0  0  0  0  0  0
   64.5093   -0.0377   -0.0080 Co  0  0  0  0  0  0  0  0  0  0  0  0
   61.1194   -0.0160   -0.0305 C   0  0  0  0  0  0  0  0  0  0  0  0
   61.8045    0.8126    0.8635 C   0  0  0  0  0  0  0  0  0  0  0  0
   61.1634    1.6580    1.8197 C   0  0  0  0  0  0  0  0  0  0  0  0
   62.1190    2.4872    2.3074 C   0  0  0  0  0  0  0  0  0  0  0  0
   63.3389    2.1474    1.6399 C   0  0  0  0  0  0  0  0  0  0  0  0
   63.1454    1.0714    0.8078 N   0  0  0  0  0  0  0  0  0  0  0  0
   64.5121    2.8882    1.7127 C   0  0  0  0  0  0  0  0  0  0  0  0
   64.5059    4.1654    2.4596 C   0  0  0  0  0  0  0  0  0  0  0  0
   65.3833    4.3644    3.5286 C   0  0  0  0  0  0  0  0  0  0  0  0
   65.3808    5.5610    4.2263 C   0  0  0  0  0  0  0  0  0  0  0  0
   64.4950    6.5540    3.8410 C   0  0  0  0  0  0  0  0  0  0  0  0
   64.4994    8.0771    4.7102 S   0  0  0  0  0  0  0  0  0  0  0  0
   63.9550    9.1299    3.9040 O   0  0  0  0  0  0  0  0  0  0  0  0
   63.4025    7.7028    5.8471 O   0  0  0  0  0  0  0  0  0  0  0  0
   65.7645    8.2871    5.3484 O   0  0  0  0  0  0  0  0  0  0  0  0
   63.6160    6.3878    2.7831 C   0  0  0  0  0  0  0  0  0  0  0  0
   63.6233    5.1858    2.0953 C   0  0  0  0  0  0  0  0  0  0  0  0
   65.6873    2.4659    1.1068 C   0  0  0  0  0  0  0  0  0  0  0  0
   66.9159    3.2016    1.1139 C   0  0  0  0  0  0  0  0  0  0  0  0
   67.8723    2.3676    0.6375 C   0  0  0  0  0  0  0  0  0  0  0  0
   65.8771    1.2236    0.5471 N   0  0  0  0  0  0  0  0  0  0  0  0
   67.2218    1.1345    0.3257 C   0  0  0  0  0  0  0  0  0  0  0  0
   67.9001   -0.0389   -0.0195 C   0  0  0  0  0  0  0  0  0  0  0  0
   67.2131   -1.2047   -0.3741 C   0  0  0  0  0  0  0  0  0  0  0  0
   67.8528   -2.4433   -0.6852 C   0  0  0  0  0  0  0  0  0  0  0  0
   66.8935   -3.2611   -1.1842 C   0  0  0  0  0  0  0  0  0  0  0  0
   65.6738   -2.5113   -1.1870 C   0  0  0  0  0  0  0  0  0  0  0  0
   65.8721   -1.2734   -0.6220 N   0  0  0  0  0  0  0  0  0  0  0  0
   64.4987   -2.9169   -1.8052 C   0  0  0  0  0  0  0  0  0  0  0  0
   64.4904   -4.1861   -2.5656 C   0  0  0  0  0  0  0  0  0  0  0  0
   65.3708   -4.3746   -3.6341 C   0  0  0  0  0  0  0  0  0  0  0  0
   65.3705   -5.5642   -4.3435 C   0  0  0  0  0  0  0  0  0  0  0  0
   64.4841   -6.5612   -3.9699 C   0  0  0  0  0  0  0  0  0  0  0  0
   64.4929   -8.0771   -4.8516 S   0  0  0  0  0  0  0  0  0  0  0  0
   63.9444   -9.1363   -4.0565 O   0  0  0  0  0  0  0  0  0  0  0  0
   63.4014   -7.6946   -5.9912 O   0  0  0  0  0  0  0  0  0  0  0  0
   65.7611   -8.2821   -5.4852 O   0  0  0  0  0  0  0  0  0  0  0  0
   63.6024   -6.4056   -2.9127 C   0  0  0  0  0  0  0  0  0  0  0  0
   63.6073   -5.2101   -2.2133 C   0  0  0  0  0  0  0  0  0  0  0  0
   63.3295   -2.1714   -1.7254 C   0  0  0  0  0  0  0  0  0  0  0  0
   62.1056   -2.5058   -2.3887 C   0  0  0  0  0  0  0  0  0  0  0  0
   61.1526   -1.6825   -1.8866 C   0  0  0  0  0  0  0  0  0  0  0  0
   61.8001   -0.8432   -0.9291 C   0  0  0  0  0  0  0  0  0  0  0  0
   63.1425   -1.0964   -0.8893 N   0  0  0  0  0  0  0  0  0  0  0  0
   60.1145    1.6194    2.0656 H   0  0  0  0  0  0  0  0  0  0  0  0
   62.0171    3.2612    3.0505 H   0  0  0  0  0  0  0  0  0  0  0  0
   66.0598    3.5702    3.8220 H   0  0  0  0  0  0  0  0  0  0  0  0
   66.0572    5.7268    5.0553 H   0  0  0  0  0  0  0  0  0  0  0  0
   63.1564    8.4906    6.3472 H   0  0  0  0  0  0  0  0  0  0  0  0
   62.9451    7.1897    2.5015 H   0  0  0  0  0  0  0  0  0  0  0  0
   62.9535    5.0401    1.2558 H   0  0  0  0  0  0  0  0  0  0  0  0
   67.0237    4.2212    1.4462 H   0  0  0  0  0  0  0  0  0  0  0  0
   68.9265    2.5533    0.5093 H   0  0  0  0  0  0  0  0  0  0  0  0
   68.9023   -2.6435   -0.5419 H   0  0  0  0  0  0  0  0  0  0  0  0
   66.9934   -4.2795   -1.5226 H   0  0  0  0  0  0  0  0  0  0  0  0
   66.0487   -3.5778   -3.9168 H   0  0  0  0  0  0  0  0  0  0  0  0
   66.0494   -5.7219   -5.1720 H   0  0  0  0  0  0  0  0  0  0  0  0
   63.1542   -8.4804   -6.4939 H   0  0  0  0  0  0  0  0  0  0  0  0
   62.9316   -7.2106   -2.6400 H   0  0  0  0  0  0  0  0  0  0  0  0
   62.9357   -5.0731   -1.3739 H   0  0  0  0  0  0  0  0  0  0  0  0
   61.9989   -3.2749   -3.1362 H   0  0  0  0  0  0  0  0  0  0  0  0
   60.1017   -1.6432   -2.1237 H   0  0  0  0  0  0  0  0  0  0  0  0
   77.8886   -0.0283   -0.0313 Co  0  0  0  0  0  0  0  0  0  0  0  0
   74.4976   -0.0476   -0.0143 C   0  0  0  0  0  0  0  0  0  0  0  0
   75.1767    0.8759    0.7865 C   0  0  0  0  0  0  0  0  0  0  0  0
   74.5263    1.7998    1.6609 C   0  0  0  0  0  0  0  0  0  0  0  0
   75.4810    2.6541    2.1031 C   0  0  0  0  0  0  0  0  0  0  0  0
   76.7092    2.2564    1.4831 C   0  0  0  0  0  0  0  0  0  0  0  0
   76.5202    1.1164    0.7360 N   0  0  0  0  0  0  0  0  0  0  0  0
   77.8838    2.9941    1.5168 C   0  0  0  0  0  0  0  0  0  0  0  0
   77.8911    4.3066    2.1998 C   0  0  0  0  0  0  0  0  0  0  0  0
   78.7777    4.5420    3.2540 C   0  0  0  0  0  0  0  0  0  0  0  0
   78.7890    5.7650    3.9038 C   0  0  0  0  0  0  0  0  0  0  0  0
   77.9073    6.7483    3.4856 C   0  0  0  0  0  0  0  0  0  0  0  0
   77.9250    8.3028    4.2977 S   0  0  0  0  0  0  0  0  0  0  0  0
   77.4019    9.3326    3.4487 O   0  0  0  0  0  0  0  0  0  0  0  0
   76.8118    7.9883    5.4366 O   0  0  0  0  0  0  0  0  0  0  0  0
   79.1878    8.5172    4.9386 O   0  0  0  0  0  0  0  0  0  0  0  0
   77.0219    6.5476    2.4391 C   0  0  0  0  0  0  0  0  0  0  0  0
   77.0160    5.3194    1.7986 C   0  0  0  0  0  0  0  0  0  0  0  0
   79.0585    2.5337    0.9338 C   0  0  0  0  0  0  0  0  0  0  0  0
   80.2805    3.2771    0.8721 C   0  0  0  0  0  0  0  0  0  0  0  0
   81.2376    2.4191    0.4412 C   0  0  0  0  0  0  0  0  0  0  0  0
   79.2515    1.2556    0.4693 N   0  0  0  0  0  0  0  0  0  0  0  0
   80.5952    1.1606    0.2323 C   0  0  0  0  0  0  0  0  0  0  0  0
   81.2782   -0.0363    0.0055 C   0  0  0  0  0  0  0  0  0  0  0  0
   80.5989   -1.2329   -0.2324 C   0  0  0  0  0  0  0  0  0  0  0  0
   81.2462   -2.4880   -0.4481 C   0  0  0  0  0  0  0  0  0  0  0  0
   80.2956   -3.3430   -0.8985 C   0  0  0  0  0  0  0  0  0  0  0  0
   79.0722   -2.6020   -0.9625 C   0  0  0  0  0  0  0  0  0  0  0  0
   79.2566   -1.3300   -0.4775 N   0  0  0  0  0  0  0  0  0  0  0  0
   77.9034   -3.0611   -1.5573 C   0  0  0  0  0  0  0  0  0  0  0  0
   77.9175   -4.3677   -2.2517 C   0  0  0  0  0  0  0  0  0  0  0  0
   78.8012   -4.5895   -3.3112 C   0  0  0  0  0  0  0  0  0  0  0  0
   78.8128   -5.8054   -3.9743 C   0  0  0  0  0  0  0  0  0  0  0  0
   77.9355   -6.7955   -3.5629 C   0  0  0  0  0  0  0  0  0  0  0  0
   77.9503   -8.3398   -4.3942 S   0  0  0  0  0  0  0  0  0  0  0  0
   77.4175   -9.3772   -3.5606 O   0  0  0  0  0  0  0  0  0  0  0  0
   76.8451   -8.0036   -5.5348 O   0  0  0  0  0  0  0  0  0  0  0  0
   79.2149   -8.5537   -5.0319 O   0  0  0  0  0  0  0  0  0  0  0  0
   77.0549   -6.6091   -2.5098 C   0  0  0  0  0  0  0  0  0  0  0  0
   77.0479   -5.3876   -1.8568 C   0  0  0  0  0  0  0  0  0  0  0  0
   76.7252   -2.3290   -1.5237 C   0  0  0  0  0  0  0  0  0  0  0  0
   75.5013   -2.7275   -2.1514 C   0  0  0  0  0  0  0  0  0  0  0  0
   74.5402   -1.8831   -1.7034 C   0  0  0  0  0  0  0  0  0  0  0  0
   75.1827   -0.9639   -0.8187 C   0  0  0  0  0  0  0  0  0  0  0  0
   76.5263   -1.2005   -0.7622 N   0  0  0  0  0  0  0  0  0  0  0  0
   73.4731    1.7878    1.8904 H   0  0  0  0  0  0  0  0  0  0  0  0
   75.3727    3.4829    2.7835 H   0  0  0  0  0  0  0  0  0  0  0  0
   79.4505    3.7549    3.5739 H   0  0  0  0  0  0  0  0  0  0  0  0
   79.4719    5.9580    4.7216 H   0  0  0  0  0  0  0  0  0  0  0  0
   76.5336    8.8058    5.8674 H   0  0  0  0  0  0  0  0  0  0  0  0
   76.3557    7.3431    2.1296 H   0  0  0  0  0  0  0  0  0  0  0  0
   76.3413    5.1473    0.9682 H   0  0  0  0  0  0  0  0  0  0  0  0
   80.3827    4.3190    1.1281 H   0  0  0  0  0  0  0  0  0  0  0  0
   82.2881    2.6037    0.2848 H   0  0  0  0  0  0  0  0  0  0  0  0
   82.2959   -2.6712   -0.2846 H   0  0  0  0  0  0  0  0  0  0  0  0
   80.4031   -4.3810   -1.1677 H   0  0  0  0  0  0  0  0  0  0  0  0
   79.4706   -3.7971   -3.6252 H   0  0  0  0  0  0  0  0  0  0  0  0
   79.4923   -5.9877   -4.7973 H   0  0  0  0  0  0  0  0  0  0  0  0
   76.5796   -8.8105   -5.9927 H   0  0  0  0  0  0  0  0  0  0  0  0
   76.3923   -7.4098   -2.2059 H   0  0  0  0  0  0  0  0  0  0  0  0
   76.3757   -5.2255   -1.0224 H   0  0  0  0  0  0  0  0  0  0  0  0
   75.4003   -3.5491   -2.8416 H   0  0  0  0  0  0  0  0  0  0  0  0
   73.4877   -1.8743   -1.9368 H   0  0  0  0  0  0  0  0  0  0  0  0
  2  3  4  0  0  0  0
  3  4  1  0  0  0  0
  4  5  2  0  0  0  0
  5  6  4  0  0  0  0
  1  7  1  0  0  0  0
  3  7  4  0  0  0  0
  6  7  4  0  0  0  0
  6  8  4  0  0  0  0
  8  9  1  0  0  0  0
  9 10  4  0  0  0  0
 10 11  4  0  0  0  0
 11 12  4  0  0  0  0
 12 13  1  0  0  0  0
 13 14  2  0  0  0  0
 13 15  1  0  0  0  0
 13 16  2  0  0  0  0
 12 17  4  0  0  0  0
  9 18  4  0  0  0  0
 17 18  4  0  0  0  0
  8 19  4  0  0  0  0
 19 20  4  0  0  0  0
 20 21  2  0  0  0  0
  1 22  1  0  0  0  0
 19 22  4  0  0  0  0
 21 23  4  0  0  0  0
 22 23  4  0  0  0  0
 23 24  4  0  0  0  0
 24 25  4  0  0  0  0
 25 26  4  0  0  0  0
 26 27  2  0  0  0  0
 27 28  4  0  0  0  0
  1 29  1  0  0  0  0
 25 29  4  0  0  0  0
 28 29  4  0  0  0  0
 28 30  4  0  0  0  0
 30 31  1  0  0  0  0
 31 32  4  0  0  0  0
 32 33  4  0  0  0  0
 33 34  4  0  0  0  0
 34 35  1  0  0  0  0
 35 36  2  0  0  0  0
 35 37  1  0  0  0  0
 35 38  2  0  0  0  0
 34 39  4  0  0  0  0
 31 40  4  0  0  0  0
 39 40  4  0  0  0  0
 30 41  4  0  0  0  0
 41 42  4  0  0  0  0
 42 43  2  0  0  0  0
  2 44  4  0  0  0  0
 43 44  1  0  0  0  0
  1 45  1  0  0  0  0
 41 45  4  0  0  0  0
 44 45  4  0  0  0  0
  2 46  1  0  0  0  0
  4 47  1  0  0  0  0
  5 48  1  0  0  0  0
 10 49  1  0  0  0  0
 11 50  1  0  0  0  0
 15 51  1  0  0  0  0
 17 52  1  0  0  0  0
 18 53  1  0  0  0  0
 20 54  1  0  0  0  0
 21 55  1  0  0  0  0
 26 56  1  0  0  0  0
 27 57  1  0  0  0  0
 32 58  1  0  0  0  0
 33 59  1  0  0  0  0
 37 60  1  0  0  0  0
 39 61  1  0  0  0  0
 40 62  1  0  0  0  0
 42 63  1  0  0  0  0
 43 64  1  0  0  0  0
 66 67  4  0  0  0  0
 67 68  1  0  0  0  0
 68 69  2  0  0  0  0
 69 70  4  0  0  0  0
 65 71  1  0  0  0  0
 67 71  4  0  0  0  0
 70 71  4  0  0  0  0
 70 72  4  0  0  0  0
 72 73  1  0  0  0  0
 73 74  4  0  0  0  0
 74 75  4  0  0  0  0
 75 76  4  0  0  0  0
 76 77  1  0  0  0  0
 77 78  2  0  0  0  0
 77 79  1  0  0  0  0
 77 80  2  0  0  0  0
 76 81  4  0  0  0  0
 73 82  4  0  0  0  0
 81 82  4  0  0  0  0
 72 83  4  0  0  0  0
 83 84  4  0  0  0  0
 84 85  2  0  0  0  0
 65 86  1  0  0  0  0
 83 86  4  0  0  0  0
 85 87  4  0  0  0  0
 86 87  4  0  0  0  0
 87 88  4  0  0  0  0
 88 89  4  0  0  0  0
 89 90  4  0  0  0  0
 90 91  2  0  0  0  0
 91 92  4  0  0  0  0
 65 93  1  0  0  0  0
 89 93  4  0  0  0  0
 92 93  4  0  0  0  0
 92 94  4  0  0  0  0
 94 95  1  0  0  0  0
 95 96  4  0  0  0  0
 96 97  4  0  0  0  0
 97 98  4  0  0  0  0
 98 99  1  0  0  0  0
 99100  2  0  0  0  0
 99101  1  0  0  0  0
 99102  2  0  0  0  0
 98103  4  0  0  0  0
 95104  4  0  0  0  0
103104  4  0  0  0  0
 94105  4  0  0  0  0
105106  4  0  0  0  0
106107  2  0  0  0  0
 66108  4  0  0  0  0
107108  1  0  0  0  0
 65109  1  0  0  0  0
105109  4  0  0  0  0
108109  4  0  0  0  0
 66110  1  0  0  0  0
 68111  1  0  0  0  0
 69112  1  0  0  0  0
 74113  1  0  0  0  0
 75114  1  0  0  0  0
 79115  1  0  0  0  0
 81116  1  0  0  0  0
 82117  1  0  0  0  0
 84118  1  0  0  0  0
 85119  1  0  0  0  0
 90120  1  0  0  0  0
 91121  1  0  0  0  0
 96122  1  0  0  0  0
 97123  1  0  0  0  0
101124  1  0  0  0  0
103125  1  0  0  0  0
104126  1  0  0  0  0
106127  1  0  0  0  0
107128  1  0  0  0  0
 24130  4  0  0  0  0
129130  3  0  0  0  0
129131  4  0  0  0  0
131132  3  0  0  0  0
133134  3  0  0  0  0
133135  4  0  0  0  0
135136  3  0  0  0  0
137138  3  0  0  0  0
137139  4  0  0  0  0
 88140  1  0  0  0  0
139140  3  0  0  0  0
132142  4  0  0  0  0
142143  4  0  0  0  0
143144  4  0  0  0  0
144145  2  0  0  0  0
145146  4  0  0  0  0
141147  1  0  0  0  0
143147  4  0  0  0  0
146147  4  0  0  0  0
146148  4  0  0  0  0
148149  1  0  0  0  0
149150  4  0  0  0  0
150151  4  0  0  0  0
151152  4  0  0  0  0
152153  1  0  0  0  0
153154  2  0  0  0  0
153155  1  0  0  0  0
153156  2  0  0  0  0
152157  4  0  0  0  0
149158  4  0  0  0  0
157158  4  0  0  0  0
148159  4  0  0  0  0
159160  4  0  0  0  0
160161  2  0  0  0  0
141162  1  0  0  0  0
159162  4  0  0  0  0
161163  4  0  0  0  0
162163  4  0  0  0  0
134164  4  0  0  0  0
163164  4  0  0  0  0
164165  4  0  0  0  0
165166  4  0  0  0  0
166167  2  0  0  0  0
167168  4  0  0  0  0
141169  1  0  0  0  0
165169  4  0  0  0  0
168169  4  0  0  0  0
168170  4  0  0  0  0
170171  1  0  0  0  0
171172  4  0  0  0  0
172173  4  0  0  0  0
173174  4  0  0  0  0
174175  1  0  0  0  0
175176  2  0  0  0  0
175177  1  0  0  0  0
175178  2  0  0  0  0
174179  4  0  0  0  0
171180  4  0  0  0  0
179180  4  0  0  0  0
170181  4  0  0  0  0
181182  4  0  0  0  0
182183  2  0  0  0  0
142184  4  0  0  0  0
183184  4  0  0  0  0
141185  1  0  0  0  0
181185  4  0  0  0  0
184185  4  0  0  0  0
144186  1  0  0  0  0
145187  1  0  0  0  0
150188  1  0  0  0  0
151189  1  0  0  0  0
155190  1  0  0  0  0
157191  1  0  0  0  0
158192  1  0  0  0  0
160193  1  0  0  0  0
161194  1  0  0  0  0
166195  1  0  0  0  0
167196  1  0  0  0  0
172197  1  0  0  0  0
173198  1  0  0  0  0
177199  1  0  0  0  0
179200  1  0  0  0  0
180201  1  0  0  0  0
182202  1  0  0  0  0
183203  1  0  0  0  0
136205  4  0  0  0  0
205206  4  0  0  0  0
206207  4  0  0  0  0
207208  2  0  0  0  0
208209  4  0  0  0  0
204210  1  0  0  0  0
206210  4  0  0  0  0
209210  4  0  0  0  0
209211  4  0  0  0  0
211212  1  0  0  0  0
212213  4  0  0  0  0
213214  4  0  0  0  0
214215  4  0  0  0  0
215216  1  0  0  0  0
216217  2  0  0  0  0
216218  1  0  0  0  0
216219  2  0  0  0  0
215220  4  0  0  0  0
212221  4  0  0  0  0
220221  4  0  0  0  0
211222  4  0  0  0  0
222223  4  0  0  0  0
223224  2  0  0  0  0
204225  1  0  0  0  0
222225  4  0  0  0  0
224226  4  0  0  0  0
225226  4  0  0  0  0
138227  1  0  0  0  0
226227  4  0  0  0  0
227228  4  0  0  0  0
228229  4  0  0  0  0
229230  2  0  0  0  0
230231  4  0  0  0  0
204232  1  0  0  0  0
228232  4  0  0  0  0
231232  4  0  0  0  0
231233  4  0  0  0  0
233234  1  0  0  0  0
234235  4  0  0  0  0
235236  4  0  0  0  0
236237  4  0  0  0  0
237238  1  0  0  0  0
238239  2  0  0  0  0
238240  1  0  0  0  0
238241  2  0  0  0  0
237242  4  0  0  0  0
234243  4  0  0  0  0
242243  4  0  0  0  0
233244  4  0  0  0  0
244245  4  0  0  0  0
245246  2  0  0  0  0
205247  4  0  0  0  0
246247  4  0  0  0  0
204248  1  0  0  0  0
244248  4  0  0  0  0
247248  4  0  0  0  0
207249  1  0  0  0  0
208250  1  0  0  0  0
213251  1  0  0  0  0
214252  1  0  0  0  0
218253  1  0  0  0  0
220254  1  0  0  0  0
221255  1  0  0  0  0
223256  1  0  0  0  0
224257  1  0  0  0  0
229258  1  0  0  0  0
230259  1  0  0  0  0
235260  1  0  0  0  0
236261  1  0  0  0  0
240262  1  0  0  0  0
242263  1  0  0  0  0
243264  1  0  0  0  0
245265  1  0  0  0  0
246266  1  0  0  0  0
M  END
