 xtb: 6.5.1 (b24c23e)
          07302204453D

122145  0     0  0            999 V2000
   17.2376   -0.0606   -0.0338 Ni  0  0  0  0  0  0  0  0  0  0  0  0
   13.8507   -0.0714   -0.1691 C   0  0  0  0  0  0  0  0  0  0  0  0
   14.5048   -1.2859   -0.1748 C   0  0  0  0  0  0  0  0  0  0  0  0
   13.8347   -2.5504   -0.1933 C   0  0  0  0  0  0  0  0  0  0  0  0
   14.7947   -3.4968   -0.3136 C   0  0  0  0  0  0  0  0  0  0  0  0
   16.0503   -2.8071   -0.3865 C   0  0  0  0  0  0  0  0  0  0  0  0
   15.8649   -1.4548   -0.2505 N   0  0  0  0  0  0  0  0  0  0  0  0
   17.2682   -3.4272   -0.6378 C   0  0  0  0  0  0  0  0  0  0  0  0
   17.2806   -4.8840   -0.8998 C   0  0  0  0  0  0  0  0  0  0  0  0
   18.0045   -5.7457   -0.0702 C   0  0  0  0  0  0  0  0  0  0  0  0
   18.0063   -7.1089   -0.3038 C   0  0  0  0  0  0  0  0  0  0  0  0
   17.2836   -7.6143   -1.3807 C   0  0  0  0  0  0  0  0  0  0  0  0
   17.2785   -9.0458   -1.6282 N   0  0  0  0  0  0  0  0  0  0  0  0
   16.6384   -9.4466   -2.5661 O   0  0  0  0  0  0  0  0  0  0  0  0
   17.9132   -9.7429   -0.8793 O   0  0  0  0  0  0  0  0  0  0  0  0
   16.5631   -6.7727   -2.2234 C   0  0  0  0  0  0  0  0  0  0  0  0
   16.5629   -5.4119   -1.9775 C   0  0  0  0  0  0  0  0  0  0  0  0
   18.4719   -2.7331   -0.6657 C   0  0  0  0  0  0  0  0  0  0  0  0
   19.7291   -3.3247   -1.0104 C   0  0  0  0  0  0  0  0  0  0  0  0
   20.6722   -2.3684   -0.8323 C   0  0  0  0  0  0  0  0  0  0  0  0
   18.6400   -1.4112   -0.3251 N   0  0  0  0  0  0  0  0  0  0  0  0
   19.9911   -1.1970   -0.3809 C   0  0  0  0  0  0  0  0  0  0  0  0
   20.6466   -0.0372    0.0398 C   0  0  0  0  0  0  0  0  0  0  0  0
   19.9570    1.1067    0.4502 C   0  0  0  0  0  0  0  0  0  0  0  0
   20.6006    2.2766    0.9568 C   0  0  0  0  0  0  0  0  0  0  0  0
   19.6354    3.2129    1.1224 C   0  0  0  0  0  0  0  0  0  0  0  0
   18.4038    2.6133    0.7065 C   0  0  0  0  0  0  0  0  0  0  0  0
   18.6063    1.3017    0.3445 N   0  0  0  0  0  0  0  0  0  0  0  0
   17.1964    3.2964    0.6219 C   0  0  0  0  0  0  0  0  0  0  0  0
   17.1800    4.7486    0.9069 C   0  0  0  0  0  0  0  0  0  0  0  0
   16.3871    5.2574    1.9402 C   0  0  0  0  0  0  0  0  0  0  0  0
   16.3659    6.6142    2.2070 C   0  0  0  0  0  0  0  0  0  0  0  0
   17.1404    7.4710    1.4302 C   0  0  0  0  0  0  0  0  0  0  0  0
   17.1167    8.8979    1.7018 N   0  0  0  0  0  0  0  0  0  0  0  0
   16.4120    9.2825    2.5993 O   0  0  0  0  0  0  0  0  0  0  0  0
   17.8023    9.6077    1.0120 O   0  0  0  0  0  0  0  0  0  0  0  0
   17.9359    6.9851    0.3965 C   0  0  0  0  0  0  0  0  0  0  0  0
   17.9542    5.6260    0.1415 C   0  0  0  0  0  0  0  0  0  0  0  0
   16.0046    2.6725    0.2733 C   0  0  0  0  0  0  0  0  0  0  0  0
   14.7537    3.3557    0.1129 C   0  0  0  0  0  0  0  0  0  0  0  0
   13.8151    2.4067   -0.1112 C   0  0  0  0  0  0  0  0  0  0  0  0
   14.4940    1.1467   -0.0982 C   0  0  0  0  0  0  0  0  0  0  0  0
   15.8417    1.3223    0.0951 N   0  0  0  0  0  0  0  0  0  0  0  0
   12.7681   -0.0747   -0.2164 H   0  0  0  0  0  0  0  0  0  0  0  0
   12.7665   -2.6772   -0.1214 H   0  0  0  0  0  0  0  0  0  0  0  0
   14.6762   -4.5675   -0.3484 H   0  0  0  0  0  0  0  0  0  0  0  0
   18.5528   -5.3409    0.7725 H   0  0  0  0  0  0  0  0  0  0  0  0
   18.5566   -7.7859    0.3385 H   0  0  0  0  0  0  0  0  0  0  0  0
   16.0136   -7.1906   -3.0583 H   0  0  0  0  0  0  0  0  0  0  0  0
   16.0147   -4.7446   -2.6323 H   0  0  0  0  0  0  0  0  0  0  0  0
   19.8624   -4.3380   -1.3523 H   0  0  0  0  0  0  0  0  0  0  0  0
   21.7361   -2.4372   -0.9897 H   0  0  0  0  0  0  0  0  0  0  0  0
   21.6556    2.3564    1.1617 H   0  0  0  0  0  0  0  0  0  0  0  0
   19.7383    4.2179    1.4979 H   0  0  0  0  0  0  0  0  0  0  0  0
   15.7973    4.5786    2.5450 H   0  0  0  0  0  0  0  0  0  0  0  0
   15.7589    7.0173    3.0087 H   0  0  0  0  0  0  0  0  0  0  0  0
   18.5266    7.6736   -0.1958 H   0  0  0  0  0  0  0  0  0  0  0  0
   18.5593    5.2364   -0.6689 H   0  0  0  0  0  0  0  0  0  0  0  0
   14.6240    4.4245    0.1631 H   0  0  0  0  0  0  0  0  0  0  0  0
   12.7557    2.5284   -0.2701 H   0  0  0  0  0  0  0  0  0  0  0  0
   28.0905    0.0688   -0.0085 Ni  0  0  0  0  0  0  0  0  0  0  0  0
   31.4774    0.1296   -0.1300 C   0  0  0  0  0  0  0  0  0  0  0  0
   30.8233    1.2576    0.3201 C   0  0  0  0  0  0  0  0  0  0  0  0
   31.4934    2.4368    0.7771 C   0  0  0  0  0  0  0  0  0  0  0  0
   30.5334    3.3592    1.0205 C   0  0  0  0  0  0  0  0  0  0  0  0
   29.2778    2.7472    0.6942 C   0  0  0  0  0  0  0  0  0  0  0  0
   29.4632    1.4426    0.3133 N   0  0  0  0  0  0  0  0  0  0  0  0
   28.0599    3.4163    0.6938 C   0  0  0  0  0  0  0  0  0  0  0  0
   28.0475    4.8650    0.9972 C   0  0  0  0  0  0  0  0  0  0  0  0
   27.3236    5.3528    2.0893 C   0  0  0  0  0  0  0  0  0  0  0  0
   27.3218    6.7042    2.3840 C   0  0  0  0  0  0  0  0  0  0  0  0
   28.0446    7.5764    1.5752 C   0  0  0  0  0  0  0  0  0  0  0  0
   28.0497    8.9963    1.8825 N   0  0  0  0  0  0  0  0  0  0  0  0
   28.6897    9.7195    1.1632 O   0  0  0  0  0  0  0  0  0  0  0  0
   27.4148    9.3618    2.8380 O   0  0  0  0  0  0  0  0  0  0  0  0
   28.7650    7.1123    0.4784 C   0  0  0  0  0  0  0  0  0  0  0  0
   28.7652    5.7585    0.1960 C   0  0  0  0  0  0  0  0  0  0  0  0
   26.8562    2.7833    0.4077 C   0  0  0  0  0  0  0  0  0  0  0  0
   25.5990    3.4610    0.3100 C   0  0  0  0  0  0  0  0  0  0  0  0
   24.6559    2.5077    0.1165 C   0  0  0  0  0  0  0  0  0  0  0  0
   26.6881    1.4301    0.2278 N   0  0  0  0  0  0  0  0  0  0  0  0
   25.3370    1.2525    0.0957 C   0  0  0  0  0  0  0  0  0  0  0  0
   24.6815    0.0196    0.0508 C   0  0  0  0  0  0  0  0  0  0  0  0
   25.3711   -1.1948    0.0024 C   0  0  0  0  0  0  0  0  0  0  0  0
   24.7275   -2.4693    0.0335 C   0  0  0  0  0  0  0  0  0  0  0  0
   25.6927   -3.3994   -0.1641 C   0  0  0  0  0  0  0  0  0  0  0  0
   26.9243   -2.6876   -0.3249 C   0  0  0  0  0  0  0  0  0  0  0  0
   26.7218   -1.3360   -0.1687 N   0  0  0  0  0  0  0  0  0  0  0  0
   28.1317   -3.2891   -0.6595 C   0  0  0  0  0  0  0  0  0  0  0  0
   28.1481   -4.7422   -0.9398 C   0  0  0  0  0  0  0  0  0  0  0  0
   28.9411   -5.6012   -0.1727 C   0  0  0  0  0  0  0  0  0  0  0  0
   28.9623   -6.9591   -0.4341 C   0  0  0  0  0  0  0  0  0  0  0  0
   28.1877   -7.4622   -1.4754 C   0  0  0  0  0  0  0  0  0  0  0  0
   28.2115   -8.8868   -1.7586 N   0  0  0  0  0  0  0  0  0  0  0  0
   28.9162   -9.5799   -1.0708 O   0  0  0  0  0  0  0  0  0  0  0  0
   27.5258   -9.2863   -2.6642 O   0  0  0  0  0  0  0  0  0  0  0  0
   27.3921   -6.6242   -2.2515 C   0  0  0  0  0  0  0  0  0  0  0  0
   27.3738   -5.2687   -1.9783 C   0  0  0  0  0  0  0  0  0  0  0  0
   29.3235   -2.5799   -0.7488 C   0  0  0  0  0  0  0  0  0  0  0  0
   30.5744   -3.1531   -1.1538 C   0  0  0  0  0  0  0  0  0  0  0  0
   31.5129   -2.1894   -1.0058 C   0  0  0  0  0  0  0  0  0  0  0  0
   30.8341   -1.0262   -0.5211 C   0  0  0  0  0  0  0  0  0  0  0  0
   29.4863   -1.2615   -0.4077 N   0  0  0  0  0  0  0  0  0  0  0  0
   32.5600    0.1505   -0.1727 H   0  0  0  0  0  0  0  0  0  0  0  0
   32.5616    2.5274    0.8914 H   0  0  0  0  0  0  0  0  0  0  0  0
   30.6519    4.3649    1.3897 H   0  0  0  0  0  0  0  0  0  0  0  0
   26.7753    4.6616    2.7187 H   0  0  0  0  0  0  0  0  0  0  0  0
   26.7714    7.0909    3.2332 H   0  0  0  0  0  0  0  0  0  0  0  0
   29.3145    7.8127   -0.1389 H   0  0  0  0  0  0  0  0  0  0  0  0
   29.3134    5.3855   -0.6612 H   0  0  0  0  0  0  0  0  0  0  0  0
   25.4657    4.5286    0.3730 H   0  0  0  0  0  0  0  0  0  0  0  0
   23.5920    2.6305   -0.0037 H   0  0  0  0  0  0  0  0  0  0  0  0
   23.6725   -2.6201    0.1935 H   0  0  0  0  0  0  0  0  0  0  0  0
   25.5898   -4.4718   -0.1929 H   0  0  0  0  0  0  0  0  0  0  0  0
   29.5309   -5.1987    0.6425 H   0  0  0  0  0  0  0  0  0  0  0  0
   29.5693   -7.6334    0.1580 H   0  0  0  0  0  0  0  0  0  0  0  0
   26.8015   -7.0404   -3.0587 H   0  0  0  0  0  0  0  0  0  0  0  0
   26.7687   -4.6036   -2.5835 H   0  0  0  0  0  0  0  0  0  0  0  0
   30.7041   -4.1627   -1.5081 H   0  0  0  0  0  0  0  0  0  0  0  0
   32.5724   -2.2426   -1.1987 H   0  0  0  0  0  0  0  0  0  0  0  0
   22.0561   -0.0202    0.0527 C   0  0  0  0  0  0  0  0  0  0  0  0
   23.2720   -0.0010    0.0564 C   0  0  0  0  0  0  0  0  0  0  0  0
  2  3  4  0  0  0  0
  3  4  4  0  0  0  0
  4  5  2  0  0  0  0
  5  6  4  0  0  0  0
  1  7  1  0  0  0  0
  3  7  4  0  0  0  0
  6  7  4  0  0  0  0
  6  8  4  0  0  0  0
  8  9  1  0  0  0  0
  9 10  4  0  0  0  0
 10 11  4  0  0  0  0
 11 12  4  0  0  0  0
 12 13  1  0  0  0  0
 13 14  2  0  0  0  0
 13 15  2  0  0  0  0
 14 15  1  0  0  0  0
 12 16  4  0  0  0  0
  9 17  4  0  0  0  0
 16 17  4  0  0  0  0
  8 18  4  0  0  0  0
 18 19  4  0  0  0  0
 19 20  2  0  0  0  0
  1 21  1  0  0  0  0
 18 21  4  0  0  0  0
 20 22  4  0  0  0  0
 21 22  4  0  0  0  0
 22 23  4  0  0  0  0
 23 24  4  0  0  0  0
 24 25  4  0  0  0  0
 25 26  2  0  0  0  0
 26 27  4  0  0  0  0
  1 28  1  0  0  0  0
 24 28  4  0  0  0  0
 27 28  4  0  0  0  0
 27 29  4  0  0  0  0
 29 30  1  0  0  0  0
 30 31  4  0  0  0  0
 31 32  4  0  0  0  0
 32 33  4  0  0  0  0
 33 34  1  0  0  0  0
 34 35  2  0  0  0  0
 34 36  2  0  0  0  0
 35 36  1  0  0  0  0
 33 37  4  0  0  0  0
 30 38  4  0  0  0  0
 37 38  4  0  0  0  0
 29 39  4  0  0  0  0
 39 40  4  0  0  0  0
 40 41  2  0  0  0  0
  2 42  4  0  0  0  0
 41 42  4  0  0  0  0
  1 43  1  0  0  0  0
 39 43  4  0  0  0  0
 42 43  4  0  0  0  0
  2 44  1  0  0  0  0
  4 45  1  0  0  0  0
  5 46  1  0  0  0  0
 10 47  1  0  0  0  0
 11 48  1  0  0  0  0
 16 49  1  0  0  0  0
 17 50  1  0  0  0  0
 19 51  1  0  0  0  0
 20 52  1  0  0  0  0
 25 53  1  0  0  0  0
 26 54  1  0  0  0  0
 31 55  1  0  0  0  0
 32 56  1  0  0  0  0
 37 57  1  0  0  0  0
 38 58  1  0  0  0  0
 40 59  1  0  0  0  0
 41 60  1  0  0  0  0
 62 63  4  0  0  0  0
 63 64  4  0  0  0  0
 64 65  2  0  0  0  0
 65 66  4  0  0  0  0
 61 67  1  0  0  0  0
 63 67  4  0  0  0  0
 66 67  4  0  0  0  0
 66 68  4  0  0  0  0
 68 69  1  0  0  0  0
 69 70  4  0  0  0  0
 70 71  4  0  0  0  0
 71 72  4  0  0  0  0
 72 73  1  0  0  0  0
 73 74  2  0  0  0  0
 73 75  2  0  0  0  0
 74 75  1  0  0  0  0
 72 76  4  0  0  0  0
 69 77  4  0  0  0  0
 76 77  4  0  0  0  0
 68 78  4  0  0  0  0
 78 79  4  0  0  0  0
 79 80  2  0  0  0  0
 61 81  1  0  0  0  0
 78 81  4  0  0  0  0
 80 82  4  0  0  0  0
 81 82  4  0  0  0  0
 82 83  4  0  0  0  0
 83 84  4  0  0  0  0
 84 85  4  0  0  0  0
 85 86  2  0  0  0  0
 86 87  4  0  0  0  0
 61 88  1  0  0  0  0
 84 88  4  0  0  0  0
 87 88  4  0  0  0  0
 87 89  4  0  0  0  0
 89 90  1  0  0  0  0
 90 91  4  0  0  0  0
 91 92  4  0  0  0  0
 92 93  4  0  0  0  0
 93 94  1  0  0  0  0
 94 95  2  0  0  0  0
 94 96  2  0  0  0  0
 95 96  1  0  0  0  0
 93 97  4  0  0  0  0
 90 98  4  0  0  0  0
 97 98  4  0  0  0  0
 89 99  4  0  0  0  0
 99100  4  0  0  0  0
100101  2  0  0  0  0
 62102  4  0  0  0  0
101102  4  0  0  0  0
 61103  1  0  0  0  0
 99103  4  0  0  0  0
102103  4  0  0  0  0
 62104  1  0  0  0  0
 64105  1  0  0  0  0
 65106  1  0  0  0  0
 70107  1  0  0  0  0
 71108  1  0  0  0  0
 76109  1  0  0  0  0
 77110  1  0  0  0  0
 79111  1  0  0  0  0
 80112  1  0  0  0  0
 85113  1  0  0  0  0
 86114  1  0  0  0  0
 91115  1  0  0  0  0
 92116  1  0  0  0  0
 97117  1  0  0  0  0
 98118  1  0  0  0  0
100119  1  0  0  0  0
101120  1  0  0  0  0
 23121  4  0  0  0  0
 83122  4  0  0  0  0
121122  3  0  0  0  0
M  END
