 xtb: 6.5.1 (b24c23e)
          07302212143D

193222  0     0  0            999 V2000
   33.2467    0.0165   -0.0618 Zn  0  0  0  0  0  0  0  0  0  0  0  0
   29.8391    0.0578   -0.1852 C   0  0  0  0  0  0  0  0  0  0  0  0
   30.4716    1.2941   -0.1333 C   0  0  0  0  0  0  0  0  0  0  0  0
   29.7992    2.5623   -0.0894 C   0  0  0  0  0  0  0  0  0  0  0  0
   30.7590    3.5185   -0.0239 C   0  0  0  0  0  0  0  0  0  0  0  0
   32.0314    2.8461   -0.0376 C   0  0  0  0  0  0  0  0  0  0  0  0
   31.8211    1.4991   -0.0968 N   0  0  0  0  0  0  0  0  0  0  0  0
   33.2828    3.4709    0.0287 C   0  0  0  0  0  0  0  0  0  0  0  0
   33.2993    4.9557    0.0753 C   0  0  0  0  0  0  0  0  0  0  0  0
   32.7782    5.6975   -0.9849 C   0  0  0  0  0  0  0  0  0  0  0  0
   32.7986    7.0867   -0.9411 C   0  0  0  0  0  0  0  0  0  0  0  0
   32.3017    7.8169   -1.9699 O   0  0  0  0  0  0  0  0  0  0  0  0
   33.3352    7.7396    0.1695 C   0  0  0  0  0  0  0  0  0  0  0  0
   33.3394    9.1103    0.1866 O   0  0  0  0  0  0  0  0  0  0  0  0
   33.8523    6.9992    1.2294 C   0  0  0  0  0  0  0  0  0  0  0  0
   34.3586    7.7096    2.2865 O   0  0  0  0  0  0  0  0  0  0  0  0
   33.8397    5.6107    1.1853 C   0  0  0  0  0  0  0  0  0  0  0  0
   34.5201    2.8174    0.0540 C   0  0  0  0  0  0  0  0  0  0  0  0
   35.8018    3.4666    0.0617 C   0  0  0  0  0  0  0  0  0  0  0  0
   36.7456    2.4905    0.0641 C   0  0  0  0  0  0  0  0  0  0  0  0
   34.7106    1.4611    0.0413 N   0  0  0  0  0  0  0  0  0  0  0  0
   36.0517    1.2367    0.0508 C   0  0  0  0  0  0  0  0  0  0  0  0
   36.6801   -0.0254    0.0340 C   0  0  0  0  0  0  0  0  0  0  0  0
   36.0233   -1.2719   -0.0038 C   0  0  0  0  0  0  0  0  0  0  0  0
   36.6883   -2.5412   -0.0393 C   0  0  0  0  0  0  0  0  0  0  0  0
   35.7227   -3.4942   -0.0849 C   0  0  0  0  0  0  0  0  0  0  0  0
   34.4560   -2.8157   -0.0714 C   0  0  0  0  0  0  0  0  0  0  0  0
   34.6773   -1.4646   -0.0276 N   0  0  0  0  0  0  0  0  0  0  0  0
   33.2047   -3.4386   -0.1309 C   0  0  0  0  0  0  0  0  0  0  0  0
   33.1867   -4.9242   -0.1561 C   0  0  0  0  0  0  0  0  0  0  0  0
   33.6937   -5.6494    0.9223 C   0  0  0  0  0  0  0  0  0  0  0  0
   33.6737   -7.0391    0.9000 C   0  0  0  0  0  0  0  0  0  0  0  0
   34.1569   -7.7532    1.9464 O   0  0  0  0  0  0  0  0  0  0  0  0
   33.1522   -7.7091   -0.2078 C   0  0  0  0  0  0  0  0  0  0  0  0
   33.1493   -9.0801   -0.2046 O   0  0  0  0  0  0  0  0  0  0  0  0
   32.6490   -6.9852   -1.2854 C   0  0  0  0  0  0  0  0  0  0  0  0
   32.1580   -7.7120   -2.3392 O   0  0  0  0  0  0  0  0  0  0  0  0
   32.6604   -5.5961   -1.2627 C   0  0  0  0  0  0  0  0  0  0  0  0
   31.9676   -2.7835   -0.1703 C   0  0  0  0  0  0  0  0  0  0  0  0
   30.6806   -3.4269   -0.1897 C   0  0  0  0  0  0  0  0  0  0  0  0
   29.7423   -2.4473   -0.2102 C   0  0  0  0  0  0  0  0  0  0  0  0
   30.4430   -1.1940   -0.1935 C   0  0  0  0  0  0  0  0  0  0  0  0
   31.7874   -1.4310   -0.1672 N   0  0  0  0  0  0  0  0  0  0  0  0
   28.7537    0.0709   -0.2091 H   0  0  0  0  0  0  0  0  0  0  0  0
   28.7283    2.6921   -0.1003 H   0  0  0  0  0  0  0  0  0  0  0  0
   30.6218    4.5861    0.0391 H   0  0  0  0  0  0  0  0  0  0  0  0
   32.3729    5.2020   -1.8577 H   0  0  0  0  0  0  0  0  0  0  0  0
   32.4076    8.7580   -1.7539 H   0  0  0  0  0  0  0  0  0  0  0  0
   33.7449    9.3965    1.0205 H   0  0  0  0  0  0  0  0  0  0  0  0
   34.6950    7.1151    2.9699 H   0  0  0  0  0  0  0  0  0  0  0  0
   34.2319    5.0410    2.0196 H   0  0  0  0  0  0  0  0  0  0  0  0
   35.9593    4.5331    0.0507 H   0  0  0  0  0  0  0  0  0  0  0  0
   37.8182    2.6029    0.0675 H   0  0  0  0  0  0  0  0  0  0  0  0
   37.7580   -2.6779   -0.0348 H   0  0  0  0  0  0  0  0  0  0  0  0
   35.8549   -4.5629   -0.1353 H   0  0  0  0  0  0  0  0  0  0  0  0
   34.0888   -5.1401    1.7918 H   0  0  0  0  0  0  0  0  0  0  0  0
   34.0555   -8.6976    1.7428 H   0  0  0  0  0  0  0  0  0  0  0  0
   32.7576   -9.3787   -1.0409 H   0  0  0  0  0  0  0  0  0  0  0  0
   31.8298   -7.1276   -3.0349 H   0  0  0  0  0  0  0  0  0  0  0  0
   32.2793   -5.0396   -2.1110 H   0  0  0  0  0  0  0  0  0  0  0  0
   30.5190   -4.4931   -0.1758 H   0  0  0  0  0  0  0  0  0  0  0  0
   28.6687   -2.5526   -0.2266 H   0  0  0  0  0  0  0  0  0  0  0  0
   60.2032   -0.0468   -0.0350 Zn  0  0  0  0  0  0  0  0  0  0  0  0
   63.6094   -0.0759   -0.2040 C   0  0  0  0  0  0  0  0  0  0  0  0
   62.9749   -1.3095   -0.2868 C   0  0  0  0  0  0  0  0  0  0  0  0
   63.6448   -2.5748   -0.3994 C   0  0  0  0  0  0  0  0  0  0  0  0
   62.6837   -3.5313   -0.4326 C   0  0  0  0  0  0  0  0  0  0  0  0
   61.4129   -2.8609   -0.3511 C   0  0  0  0  0  0  0  0  0  0  0  0
   61.6254   -1.5164   -0.2563 N   0  0  0  0  0  0  0  0  0  0  0  0
   60.1610   -3.4882   -0.3417 C   0  0  0  0  0  0  0  0  0  0  0  0
   60.1420   -4.9684   -0.4674 C   0  0  0  0  0  0  0  0  0  0  0  0
   60.6434   -5.5820   -1.6154 C   0  0  0  0  0  0  0  0  0  0  0  0
   60.6204   -6.9668   -1.7331 C   0  0  0  0  0  0  0  0  0  0  0  0
   61.0979   -7.5726   -2.8482 O   0  0  0  0  0  0  0  0  0  0  0  0
   60.1015   -7.7443   -0.6967 C   0  0  0  0  0  0  0  0  0  0  0  0
   60.0946   -9.1078   -0.8388 O   0  0  0  0  0  0  0  0  0  0  0  0
   59.6044   -7.1320    0.4507 C   0  0  0  0  0  0  0  0  0  0  0  0
   59.1149   -7.9602    1.4272 O   0  0  0  0  0  0  0  0  0  0  0  0
   59.6192   -5.7477    0.5681 C   0  0  0  0  0  0  0  0  0  0  0  0
   58.9255   -2.8415   -0.2265 C   0  0  0  0  0  0  0  0  0  0  0  0
   57.6427   -3.4866   -0.2792 C   0  0  0  0  0  0  0  0  0  0  0  0
   56.7008   -2.5166   -0.1554 C   0  0  0  0  0  0  0  0  0  0  0  0
   58.7373   -1.4926   -0.0811 N   0  0  0  0  0  0  0  0  0  0  0  0
   57.3968   -1.2699   -0.0323 C   0  0  0  0  0  0  0  0  0  0  0  0
   56.7711   -0.0136    0.1019 C   0  0  0  0  0  0  0  0  0  0  0  0
   57.4303    1.2282    0.2021 C   0  0  0  0  0  0  0  0  0  0  0  0
   56.7676    2.4938    0.3201 C   0  0  0  0  0  0  0  0  0  0  0  0
   57.7347    3.4448    0.3744 C   0  0  0  0  0  0  0  0  0  0  0  0
   58.9999    2.7681    0.2956 C   0  0  0  0  0  0  0  0  0  0  0  0
   58.7763    1.4210    0.1866 N   0  0  0  0  0  0  0  0  0  0  0  0
   60.2516    3.3928    0.2926 C   0  0  0  0  0  0  0  0  0  0  0  0
   60.2723    4.8717    0.4361 C   0  0  0  0  0  0  0  0  0  0  0  0
   59.7864    5.4697    1.5987 C   0  0  0  0  0  0  0  0  0  0  0  0
   59.8095    6.8530    1.7339 C   0  0  0  0  0  0  0  0  0  0  0  0
   59.3471    7.4437    2.8632 O   0  0  0  0  0  0  0  0  0  0  0  0
   60.3126    7.6443    0.7001 C   0  0  0  0  0  0  0  0  0  0  0  0
   60.3193    9.0058    0.8592 O   0  0  0  0  0  0  0  0  0  0  0  0
   60.7942    7.0472   -0.4619 C   0  0  0  0  0  0  0  0  0  0  0  0
   61.2681    7.8885   -1.4351 O   0  0  0  0  0  0  0  0  0  0  0  0
   60.7801    5.6645   -0.5966 C   0  0  0  0  0  0  0  0  0  0  0  0
   61.4868    2.7459    0.1628 C   0  0  0  0  0  0  0  0  0  0  0  0
   62.7746    3.3871    0.1995 C   0  0  0  0  0  0  0  0  0  0  0  0
   63.7107    2.4158    0.0554 C   0  0  0  0  0  0  0  0  0  0  0  0
   63.0080    1.1689   -0.0612 C   0  0  0  0  0  0  0  0  0  0  0  0
   61.6645    1.4019    0.0098 N   0  0  0  0  0  0  0  0  0  0  0  0
   64.6943   -0.0869   -0.2436 H   0  0  0  0  0  0  0  0  0  0  0  0
   64.7152   -2.7032   -0.4398 H   0  0  0  0  0  0  0  0  0  0  0  0
   62.8191   -4.5991   -0.4965 H   0  0  0  0  0  0  0  0  0  0  0  0
   61.0350   -4.9884   -2.4313 H   0  0  0  0  0  0  0  0  0  0  0  0
   60.9921   -8.5324   -2.7421 H   0  0  0  0  0  0  0  0  0  0  0  0
   59.7020   -9.4884   -0.0371 H   0  0  0  0  0  0  0  0  0  0  0  0
   58.7913   -7.4484    2.1800 H   0  0  0  0  0  0  0  0  0  0  0  0
   59.2421   -5.2787    1.4694 H   0  0  0  0  0  0  0  0  0  0  0  0
   57.4835   -4.5448   -0.4104 H   0  0  0  0  0  0  0  0  0  0  0  0
   55.6281   -2.6280   -0.1537 H   0  0  0  0  0  0  0  0  0  0  0  0
   55.6983    2.6300    0.3515 H   0  0  0  0  0  0  0  0  0  0  0  0
   57.6045    4.5124    0.4489 H   0  0  0  0  0  0  0  0  0  0  0  0
   59.4054    4.8651    2.4116 H   0  0  0  0  0  0  0  0  0  0  0  0
   59.4449    8.4053    2.7658 H   0  0  0  0  0  0  0  0  0  0  0  0
   60.6933    9.3979    0.0542 H   0  0  0  0  0  0  0  0  0  0  0  0
   61.5799    7.3867   -2.1995 H   0  0  0  0  0  0  0  0  0  0  0  0
   61.1447    5.2075   -1.5092 H   0  0  0  0  0  0  0  0  0  0  0  0
   62.9380    4.4448    0.3316 H   0  0  0  0  0  0  0  0  0  0  0  0
   64.7842    2.5220    0.0366 H   0  0  0  0  0  0  0  0  0  0  0  0
   39.3081   -0.0433    0.0364 C   0  0  0  0  0  0  0  0  0  0  0  0
   38.0857   -0.0392    0.0399 C   0  0  0  0  0  0  0  0  0  0  0  0
   40.6575   -0.0440    0.0288 C   0  0  0  0  0  0  0  0  0  0  0  0
   41.8801   -0.0410    0.0170 C   0  0  0  0  0  0  0  0  0  0  0  0
   52.7939    0.0102    0.1072 C   0  0  0  0  0  0  0  0  0  0  0  0
   51.5714    0.0088    0.0872 C   0  0  0  0  0  0  0  0  0  0  0  0
   54.1432    0.0070    0.1175 C   0  0  0  0  0  0  0  0  0  0  0  0
   55.3656    0.0013    0.1187 C   0  0  0  0  0  0  0  0  0  0  0  0
   46.7264   -0.0146    0.0176 Zn  0  0  0  0  0  0  0  0  0  0  0  0
   43.2851   -0.0338    0.0098 C   0  0  0  0  0  0  0  0  0  0  0  0
   43.9230    1.2199    0.1095 C   0  0  0  0  0  0  0  0  0  0  0  0
   43.2386    2.4713    0.2425 C   0  0  0  0  0  0  0  0  0  0  0  0
   44.1894    3.4394    0.3001 C   0  0  0  0  0  0  0  0  0  0  0  0
   45.4644    2.7874    0.1956 C   0  0  0  0  0  0  0  0  0  0  0  0
   45.2653    1.4364    0.0898 N   0  0  0  0  0  0  0  0  0  0  0  0
   46.7068    3.4313    0.2254 C   0  0  0  0  0  0  0  0  0  0  0  0
   46.6950    4.9143    0.3031 C   0  0  0  0  0  0  0  0  0  0  0  0
   47.2589    5.5689    1.3984 C   0  0  0  0  0  0  0  0  0  0  0  0
   47.2483    6.9585    1.4864 C   0  0  0  0  0  0  0  0  0  0  0  0
   47.7853    7.6057    2.5540 O   0  0  0  0  0  0  0  0  0  0  0  0
   46.6737    7.7143    0.4596 C   0  0  0  0  0  0  0  0  0  0  0  0
   46.6510    9.0720    0.5136 O   0  0  0  0  0  0  0  0  0  0  0  0
   46.1158    7.0515   -0.6366 C   0  0  0  0  0  0  0  0  0  0  0  0
   45.5735    7.8503   -1.6110 O   0  0  0  0  0  0  0  0  0  0  0  0
   46.1167    5.6663   -0.7211 C   0  0  0  0  0  0  0  0  0  0  0  0
   47.9568    2.8035    0.1895 C   0  0  0  0  0  0  0  0  0  0  0  0
   49.2253    3.4765    0.1792 C   0  0  0  0  0  0  0  0  0  0  0  0
   50.1867    2.5181    0.1400 C   0  0  0  0  0  0  0  0  0  0  0  0
   48.1707    1.4514    0.1389 N   0  0  0  0  0  0  0  0  0  0  0  0
   49.5154    1.2528    0.1134 C   0  0  0  0  0  0  0  0  0  0  0  0
   50.1666    0.0030    0.0641 C   0  0  0  0  0  0  0  0  0  0  0  0
   49.5291   -1.2518   -0.0142 C   0  0  0  0  0  0  0  0  0  0  0  0
   50.2127   -2.5107   -0.0475 C   0  0  0  0  0  0  0  0  0  0  0  0
   49.2621   -3.4762   -0.1351 C   0  0  0  0  0  0  0  0  0  0  0  0
   47.9879   -2.8143   -0.1629 C   0  0  0  0  0  0  0  0  0  0  0  0
   48.1871   -1.4620   -0.0784 N   0  0  0  0  0  0  0  0  0  0  0  0
   46.7459   -3.4540   -0.2385 C   0  0  0  0  0  0  0  0  0  0  0  0
   46.7570   -4.9348   -0.3663 C   0  0  0  0  0  0  0  0  0  0  0  0
   47.3377   -5.5297   -1.4867 C   0  0  0  0  0  0  0  0  0  0  0  0
   47.3362   -6.9137   -1.6170 C   0  0  0  0  0  0  0  0  0  0  0  0
   47.8824   -7.5037   -2.7065 O   0  0  0  0  0  0  0  0  0  0  0  0
   46.7586   -7.7030   -0.6211 C   0  0  0  0  0  0  0  0  0  0  0  0
   46.7807   -9.0827   -0.7826 O   0  0  0  0  0  0  0  0  0  0  0  0
   46.2132   -7.1117    0.5171 C   0  0  0  0  0  0  0  0  0  0  0  0
   45.6835   -7.8847    1.5079 O   0  0  0  0  0  0  0  0  0  0  0  0
   46.1953   -5.7266    0.6357 C   0  0  0  0  0  0  0  0  0  0  0  0
   45.4958   -2.8268   -0.2076 C   0  0  0  0  0  0  0  0  0  0  0  0
   44.2284   -3.4924   -0.3230 C   0  0  0  0  0  0  0  0  0  0  0  0
   43.2665   -2.5369   -0.2487 C   0  0  0  0  0  0  0  0  0  0  0  0
   43.9364   -1.2791   -0.0996 C   0  0  0  0  0  0  0  0  0  0  0  0
   45.2811   -1.4800   -0.0825 N   0  0  0  0  0  0  0  0  0  0  0  0
   42.1675    2.5874    0.2920 H   0  0  0  0  0  0  0  0  0  0  0  0
   44.0409    4.5008    0.4175 H   0  0  0  0  0  0  0  0  0  0  0  0
   47.6950    4.9926    2.2067 H   0  0  0  0  0  0  0  0  0  0  0  0
   48.1553    6.9797    3.1900 H   0  0  0  0  0  0  0  0  0  0  0  0
   46.2132    9.3989   -0.2888 H   0  0  0  0  0  0  0  0  0  0  0  0
   45.2125    7.3164   -2.3306 H   0  0  0  0  0  0  0  0  0  0  0  0
   45.6881    5.1764   -1.5876 H   0  0  0  0  0  0  0  0  0  0  0  0
   49.3630    4.5458    0.1885 H   0  0  0  0  0  0  0  0  0  0  0  0
   51.2569    2.6500    0.1210 H   0  0  0  0  0  0  0  0  0  0  0  0
   51.2832   -2.6332   -0.0039 H   0  0  0  0  0  0  0  0  0  0  0  0
   49.4093   -4.5437   -0.1665 H   0  0  0  0  0  0  0  0  0  0  0  0
   47.7704   -4.9241   -2.2724 H   0  0  0  0  0  0  0  0  0  0  0  0
   47.7913   -8.4665   -2.6096 H   0  0  0  0  0  0  0  0  0  0  0  0
   45.9164   -9.4635   -0.5795 H   0  0  0  0  0  0  0  0  0  0  0  0
   45.9869   -8.7989    1.4118 H   0  0  0  0  0  0  0  0  0  0  0  0
   45.7683   -5.2768    1.5227 H   0  0  0  0  0  0  0  0  0  0  0  0
   44.0928   -4.5539   -0.4533 H   0  0  0  0  0  0  0  0  0  0  0  0
   42.1967   -2.6643   -0.2986 H   0  0  0  0  0  0  0  0  0  0  0  0
  2  3  4  0  0  0  0
  3  4  1  0  0  0  0
  4  5  2  0  0  0  0
  5  6  4  0  0  0  0
  1  7  1  0  0  0  0
  3  7  4  0  0  0  0
  6  7  4  0  0  0  0
  6  8  4  0  0  0  0
  8  9  1  0  0  0  0
  9 10  4  0  0  0  0
 10 11  4  0  0  0  0
 11 12  1  0  0  0  0
 11 13  4  0  0  0  0
 13 14  1  0  0  0  0
 13 15  4  0  0  0  0
 15 16  1  0  0  0  0
  9 17  4  0  0  0  0
 15 17  4  0  0  0  0
  8 18  4  0  0  0  0
 18 19  4  0  0  0  0
 19 20  2  0  0  0  0
  1 21  1  0  0  0  0
 18 21  4  0  0  0  0
 20 22  4  0  0  0  0
 21 22  4  0  0  0  0
 22 23  4  0  0  0  0
 23 24  4  0  0  0  0
 24 25  4  0  0  0  0
 25 26  2  0  0  0  0
 26 27  4  0  0  0  0
  1 28  1  0  0  0  0
 24 28  4  0  0  0  0
 27 28  4  0  0  0  0
 27 29  4  0  0  0  0
 29 30  1  0  0  0  0
 30 31  4  0  0  0  0
 31 32  4  0  0  0  0
 32 33  1  0  0  0  0
 32 34  4  0  0  0  0
 34 35  1  0  0  0  0
 34 36  4  0  0  0  0
 36 37  1  0  0  0  0
 30 38  4  0  0  0  0
 36 38  4  0  0  0  0
 29 39  4  0  0  0  0
 39 40  4  0  0  0  0
 40 41  2  0  0  0  0
  2 42  4  0  0  0  0
 41 42  4  0  0  0  0
  1 43  1  0  0  0  0
 39 43  4  0  0  0  0
 42 43  4  0  0  0  0
  2 44  1  0  0  0  0
  4 45  1  0  0  0  0
  5 46  1  0  0  0  0
 10 47  1  0  0  0  0
 12 48  1  0  0  0  0
 14 49  1  0  0  0  0
 16 50  1  0  0  0  0
 17 51  1  0  0  0  0
 19 52  1  0  0  0  0
 20 53  1  0  0  0  0
 25 54  1  0  0  0  0
 26 55  1  0  0  0  0
 31 56  1  0  0  0  0
 33 57  1  0  0  0  0
 35 58  1  0  0  0  0
 37 59  1  0  0  0  0
 38 60  1  0  0  0  0
 40 61  1  0  0  0  0
 41 62  1  0  0  0  0
 64 65  4  0  0  0  0
 65 66  1  0  0  0  0
 66 67  2  0  0  0  0
 67 68  4  0  0  0  0
 63 69  1  0  0  0  0
 65 69  4  0  0  0  0
 68 69  4  0  0  0  0
 68 70  4  0  0  0  0
 70 71  1  0  0  0  0
 71 72  4  0  0  0  0
 72 73  4  0  0  0  0
 73 74  1  0  0  0  0
 73 75  4  0  0  0  0
 75 76  1  0  0  0  0
 75 77  4  0  0  0  0
 77 78  1  0  0  0  0
 71 79  4  0  0  0  0
 77 79  4  0  0  0  0
 70 80  4  0  0  0  0
 80 81  4  0  0  0  0
 81 82  2  0  0  0  0
 63 83  1  0  0  0  0
 80 83  4  0  0  0  0
 82 84  4  0  0  0  0
 83 84  4  0  0  0  0
 84 85  4  0  0  0  0
 85 86  4  0  0  0  0
 86 87  4  0  0  0  0
 87 88  2  0  0  0  0
 88 89  4  0  0  0  0
 63 90  1  0  0  0  0
 86 90  4  0  0  0  0
 89 90  4  0  0  0  0
 89 91  4  0  0  0  0
 91 92  1  0  0  0  0
 92 93  4  0  0  0  0
 93 94  4  0  0  0  0
 94 95  1  0  0  0  0
 94 96  4  0  0  0  0
 96 97  1  0  0  0  0
 96 98  4  0  0  0  0
 98 99  1  0  0  0  0
 92100  4  0  0  0  0
 98100  4  0  0  0  0
 91101  4  0  0  0  0
101102  4  0  0  0  0
102103  2  0  0  0  0
 64104  4  0  0  0  0
103104  1  0  0  0  0
 63105  1  0  0  0  0
101105  4  0  0  0  0
104105  4  0  0  0  0
 64106  1  0  0  0  0
 66107  1  0  0  0  0
 67108  1  0  0  0  0
 72109  1  0  0  0  0
 74110  1  0  0  0  0
 76111  1  0  0  0  0
 78112  1  0  0  0  0
 79113  1  0  0  0  0
 81114  1  0  0  0  0
 82115  1  0  0  0  0
 87116  1  0  0  0  0
 88117  1  0  0  0  0
 93118  1  0  0  0  0
 95119  1  0  0  0  0
 97120  1  0  0  0  0
 99121  1  0  0  0  0
100122  1  0  0  0  0
102123  1  0  0  0  0
103124  1  0  0  0  0
 23126  4  0  0  0  0
125126  3  0  0  0  0
125127  4  0  0  0  0
127128  3  0  0  0  0
129130  3  0  0  0  0
129131  4  0  0  0  0
 85132  4  0  0  0  0
131132  3  0  0  0  0
128134  4  0  0  0  0
134135  4  0  0  0  0
135136  4  0  0  0  0
136137  2  0  0  0  0
137138  4  0  0  0  0
133139  1  0  0  0  0
135139  4  0  0  0  0
138139  4  0  0  0  0
138140  4  0  0  0  0
140141  1  0  0  0  0
141142  4  0  0  0  0
142143  4  0  0  0  0
143144  1  0  0  0  0
143145  4  0  0  0  0
145146  1  0  0  0  0
145147  4  0  0  0  0
147148  1  0  0  0  0
141149  4  0  0  0  0
147149  4  0  0  0  0
140150  4  0  0  0  0
150151  4  0  0  0  0
151152  2  0  0  0  0
133153  1  0  0  0  0
150153  4  0  0  0  0
152154  4  0  0  0  0
153154  4  0  0  0  0
130155  4  0  0  0  0
154155  4  0  0  0  0
155156  4  0  0  0  0
156157  4  0  0  0  0
157158  2  0  0  0  0
158159  4  0  0  0  0
133160  1  0  0  0  0
156160  4  0  0  0  0
159160  4  0  0  0  0
159161  4  0  0  0  0
161162  1  0  0  0  0
162163  4  0  0  0  0
163164  4  0  0  0  0
164165  1  0  0  0  0
164166  4  0  0  0  0
166167  1  0  0  0  0
166168  4  0  0  0  0
168169  1  0  0  0  0
162170  4  0  0  0  0
168170  4  0  0  0  0
161171  4  0  0  0  0
171172  4  0  0  0  0
172173  2  0  0  0  0
134174  4  0  0  0  0
173174  4  0  0  0  0
133175  1  0  0  0  0
171175  4  0  0  0  0
174175  4  0  0  0  0
136176  1  0  0  0  0
137177  1  0  0  0  0
142178  1  0  0  0  0
144179  1  0  0  0  0
146180  1  0  0  0  0
148181  1  0  0  0  0
149182  1  0  0  0  0
151183  1  0  0  0  0
152184  1  0  0  0  0
157185  1  0  0  0  0
158186  1  0  0  0  0
163187  1  0  0  0  0
165188  1  0  0  0  0
167189  1  0  0  0  0
169190  1  0  0  0  0
170191  1  0  0  0  0
172192  1  0  0  0  0
173193  1  0  0  0  0
M  END
