 xtb: 6.5.1 (b24c23e)
          07292216523D

128147  0     0  0            999 V2000
   13.3017    0.0326   -0.1122 Fe  0  0  0  0  0  0  0  0  0  0  0  0
    9.9150    0.0889   -0.2229 C   0  0  0  0  0  0  0  0  0  0  0  0
   10.5772    1.2973   -0.1610 C   0  0  0  0  0  0  0  0  0  0  0  0
    9.9086    2.5632   -0.1335 C   0  0  0  0  0  0  0  0  0  0  0  0
   10.8649    3.5025    0.0542 C   0  0  0  0  0  0  0  0  0  0  0  0
   12.1192    2.8095    0.1223 C   0  0  0  0  0  0  0  0  0  0  0  0
   11.9302    1.4616   -0.0183 N   0  0  0  0  0  0  0  0  0  0  0  0
   13.3376    3.4298    0.3769 C   0  0  0  0  0  0  0  0  0  0  0  0
   13.3548    4.8952    0.5976 C   0  0  0  0  0  0  0  0  0  0  0  0
   13.7257    5.4143    1.8412 C   0  0  0  0  0  0  0  0  0  0  0  0
   13.7392    6.7800    2.0499 C   0  0  0  0  0  0  0  0  0  0  0  0
   13.3887    7.6568    1.0180 C   0  0  0  0  0  0  0  0  0  0  0  0
   13.4142    9.1105    1.2647 C   0  0  0  0  0  0  0  0  0  0  0  0
   13.7232    9.6048    2.3183 O   0  0  0  0  0  0  0  0  0  0  0  0
   13.0224    7.1384   -0.2263 C   0  0  0  0  0  0  0  0  0  0  0  0
   13.0033    5.7703   -0.4332 C   0  0  0  0  0  0  0  0  0  0  0  0
   14.5420    2.7425    0.4171 C   0  0  0  0  0  0  0  0  0  0  0  0
   15.8140    3.3780    0.5958 C   0  0  0  0  0  0  0  0  0  0  0  0
   16.7557    2.4179    0.4370 C   0  0  0  0  0  0  0  0  0  0  0  0
   14.7091    1.3993    0.1758 N   0  0  0  0  0  0  0  0  0  0  0  0
   16.0575    1.2000    0.1677 C   0  0  0  0  0  0  0  0  0  0  0  0
   16.7094   -0.0111   -0.0968 C   0  0  0  0  0  0  0  0  0  0  0  0
   16.0260   -1.2144   -0.3091 C   0  0  0  0  0  0  0  0  0  0  0  0
   16.6904   -2.4541   -0.5631 C   0  0  0  0  0  0  0  0  0  0  0  0
   15.7275   -3.4051   -0.6218 C   0  0  0  0  0  0  0  0  0  0  0  0
   14.4770   -2.7409   -0.4027 C   0  0  0  0  0  0  0  0  0  0  0  0
   14.6759   -1.3915   -0.2365 N   0  0  0  0  0  0  0  0  0  0  0  0
   13.2511   -3.3915   -0.3664 C   0  0  0  0  0  0  0  0  0  0  0  0
   13.2316   -4.8671   -0.4867 C   0  0  0  0  0  0  0  0  0  0  0  0
   12.5823   -5.4795   -1.5623 C   0  0  0  0  0  0  0  0  0  0  0  0
   12.5673   -6.8580   -1.6787 C   0  0  0  0  0  0  0  0  0  0  0  0
   13.1979   -7.6522   -0.7180 C   0  0  0  0  0  0  0  0  0  0  0  0
   13.1942   -9.1234   -0.8183 C   0  0  0  0  0  0  0  0  0  0  0  0
   13.7259   -9.8498   -0.0184 O   0  0  0  0  0  0  0  0  0  0  0  0
   13.8464   -7.0396    0.3594 C   0  0  0  0  0  0  0  0  0  0  0  0
   13.8657   -5.6627    0.4723 C   0  0  0  0  0  0  0  0  0  0  0  0
   12.0408   -2.7165   -0.2473 C   0  0  0  0  0  0  0  0  0  0  0  0
   10.7618   -3.3652   -0.2028 C   0  0  0  0  0  0  0  0  0  0  0  0
    9.8274   -2.3861   -0.1849 C   0  0  0  0  0  0  0  0  0  0  0  0
   10.5364   -1.1424   -0.1965 C   0  0  0  0  0  0  0  0  0  0  0  0
   11.8899   -1.3569   -0.2001 N   0  0  0  0  0  0  0  0  0  0  0  0
    8.8321    0.1076   -0.2724 H   0  0  0  0  0  0  0  0  0  0  0  0
    8.8426    2.6942   -0.2302 H   0  0  0  0  0  0  0  0  0  0  0  0
   10.7428    4.5691    0.1497 H   0  0  0  0  0  0  0  0  0  0  0  0
   13.9888    4.7357    2.6447 H   0  0  0  0  0  0  0  0  0  0  0  0
   14.0202    7.1919    3.0132 H   0  0  0  0  0  0  0  0  0  0  0  0
   13.1210    9.7268    0.3881 H   0  0  0  0  0  0  0  0  0  0  0  0
   12.7533    7.8121   -1.0333 H   0  0  0  0  0  0  0  0  0  0  0  0
   12.7304    5.3706   -1.4033 H   0  0  0  0  0  0  0  0  0  0  0  0
   15.9578    4.4273    0.7947 H   0  0  0  0  0  0  0  0  0  0  0  0
   17.8283    2.5115    0.4896 H   0  0  0  0  0  0  0  0  0  0  0  0
   17.7565   -2.5667   -0.6768 H   0  0  0  0  0  0  0  0  0  0  0  0
   15.8428   -4.4603   -0.8082 H   0  0  0  0  0  0  0  0  0  0  0  0
   12.1038   -4.8652   -2.3166 H   0  0  0  0  0  0  0  0  0  0  0  0
   12.0657   -7.3252   -2.5200 H   0  0  0  0  0  0  0  0  0  0  0  0
   12.6548   -9.5183   -1.7055 H   0  0  0  0  0  0  0  0  0  0  0  0
   14.3312   -7.6645    1.1017 H   0  0  0  0  0  0  0  0  0  0  0  0
   14.3594   -5.1906    1.3141 H   0  0  0  0  0  0  0  0  0  0  0  0
   10.6109   -4.4323   -0.1844 H   0  0  0  0  0  0  0  0  0  0  0  0
    8.7532   -2.4775   -0.1592 H   0  0  0  0  0  0  0  0  0  0  0  0
   31.8485   -0.0198   -0.1152 Fe  0  0  0  0  0  0  0  0  0  0  0  0
   35.2353   -0.0565   -0.2342 C   0  0  0  0  0  0  0  0  0  0  0  0
   34.5743   -1.2620   -0.3450 C   0  0  0  0  0  0  0  0  0  0  0  0
   35.2440   -2.5183   -0.4981 C   0  0  0  0  0  0  0  0  0  0  0  0
   34.2887   -3.4756   -0.4454 C   0  0  0  0  0  0  0  0  0  0  0  0
   33.0338   -2.8006   -0.2789 C   0  0  0  0  0  0  0  0  0  0  0  0
   33.2215   -1.4462   -0.2266 N   0  0  0  0  0  0  0  0  0  0  0  0
   31.8160   -3.4519   -0.1153 C   0  0  0  0  0  0  0  0  0  0  0  0
   31.7997   -4.9338   -0.1056 C   0  0  0  0  0  0  0  0  0  0  0  0
   31.4299   -5.6248    1.0517 C   0  0  0  0  0  0  0  0  0  0  0  0
   31.4161   -7.0063    1.0637 C   0  0  0  0  0  0  0  0  0  0  0  0
   31.7654   -7.7271   -0.0830 C   0  0  0  0  0  0  0  0  0  0  0  0
   31.7390   -9.2011   -0.0460 C   0  0  0  0  0  0  0  0  0  0  0  0
   31.4304   -9.8404    0.9266 O   0  0  0  0  0  0  0  0  0  0  0  0
   32.1311   -7.0368   -1.2409 C   0  0  0  0  0  0  0  0  0  0  0  0
   32.1504   -5.6532   -1.2508 C   0  0  0  0  0  0  0  0  0  0  0  0
   30.6109   -2.7785    0.0225 C   0  0  0  0  0  0  0  0  0  0  0  0
   29.3396   -3.4342    0.1091 C   0  0  0  0  0  0  0  0  0  0  0  0
   28.3969   -2.4621    0.0900 C   0  0  0  0  0  0  0  0  0  0  0  0
   30.4425   -1.4147   -0.0243 N   0  0  0  0  0  0  0  0  0  0  0  0
   29.0939   -1.2175   -0.0026 C   0  0  0  0  0  0  0  0  0  0  0  0
   28.4406    0.0181   -0.0909 C   0  0  0  0  0  0  0  0  0  0  0  0
   29.1227    1.2401   -0.1304 C   0  0  0  0  0  0  0  0  0  0  0  0
   28.4573    2.5027   -0.2057 C   0  0  0  0  0  0  0  0  0  0  0  0
   29.4194    3.4533   -0.1302 C   0  0  0  0  0  0  0  0  0  0  0  0
   30.6705    2.7658   -0.0083 C   0  0  0  0  0  0  0  0  0  0  0  0
   30.4728    1.4063   -0.0350 N   0  0  0  0  0  0  0  0  0  0  0  0
   31.8959    3.4055    0.1198 C   0  0  0  0  0  0  0  0  0  0  0  0
   31.9147    4.8833    0.2104 C   0  0  0  0  0  0  0  0  0  0  0  0
   32.5637    5.6425   -0.7673 C   0  0  0  0  0  0  0  0  0  0  0  0
   32.5794    7.0235   -0.6860 C   0  0  0  0  0  0  0  0  0  0  0  0
   31.9496    7.6728    0.3785 C   0  0  0  0  0  0  0  0  0  0  0  0
   31.9541    9.1432    0.4892 C   0  0  0  0  0  0  0  0  0  0  0  0
   31.4244    9.7483    1.3855 O   0  0  0  0  0  0  0  0  0  0  0  0
   31.3010    6.9131    1.3577 C   0  0  0  0  0  0  0  0  0  0  0  0
   31.2809    5.5343    1.2731 C   0  0  0  0  0  0  0  0  0  0  0  0
   33.1067    2.7215    0.1423 C   0  0  0  0  0  0  0  0  0  0  0  0
   34.3851    3.3584    0.2792 C   0  0  0  0  0  0  0  0  0  0  0  0
   35.3205    2.3878    0.1571 C   0  0  0  0  0  0  0  0  0  0  0  0
   34.6127    1.1577   -0.0319 C   0  0  0  0  0  0  0  0  0  0  0  0
   33.2590    1.3693   -0.0051 N   0  0  0  0  0  0  0  0  0  0  0  0
   36.3182   -0.0668   -0.2866 H   0  0  0  0  0  0  0  0  0  0  0  0
   36.3101   -2.6331   -0.6130 H   0  0  0  0  0  0  0  0  0  0  0  0
   34.4117   -4.5449   -0.5025 H   0  0  0  0  0  0  0  0  0  0  0  0
   31.1675   -5.0675    1.9439 H   0  0  0  0  0  0  0  0  0  0  0  0
   31.1356   -7.5512    1.9587 H   0  0  0  0  0  0  0  0  0  0  0  0
   32.0311   -9.6864   -1.0018 H   0  0  0  0  0  0  0  0  0  0  0  0
   32.3993   -7.5887   -2.1360 H   0  0  0  0  0  0  0  0  0  0  0  0
   32.4229   -5.1193   -2.1542 H   0  0  0  0  0  0  0  0  0  0  0  0
   29.1969   -4.5013    0.1557 H   0  0  0  0  0  0  0  0  0  0  0  0
   27.3244   -2.5632    0.1295 H   0  0  0  0  0  0  0  0  0  0  0  0
   27.3910    2.6294   -0.3012 H   0  0  0  0  0  0  0  0  0  0  0  0
   29.3032    4.5242   -0.1653 H   0  0  0  0  0  0  0  0  0  0  0  0
   33.0418    5.1418   -1.6016 H   0  0  0  0  0  0  0  0  0  0  0  0
   33.0809    7.6056   -1.4522 H   0  0  0  0  0  0  0  0  0  0  0  0
   32.4951    9.6604   -0.3318 H   0  0  0  0  0  0  0  0  0  0  0  0
   30.8167    7.4260    2.1817 H   0  0  0  0  0  0  0  0  0  0  0  0
   30.7871    4.9471    2.0391 H   0  0  0  0  0  0  0  0  0  0  0  0
   34.5349    4.4121    0.4499 H   0  0  0  0  0  0  0  0  0  0  0  0
   36.3946    2.4757    0.1958 H   0  0  0  0  0  0  0  0  0  0  0  0
   18.1096   -0.0188   -0.1295 C   0  0  0  0  0  0  0  0  0  0  0  0
   19.3359   -0.0121   -0.1513 C   0  0  0  0  0  0  0  0  0  0  0  0
   20.6751   -0.0034   -0.1675 C   0  0  0  0  0  0  0  0  0  0  0  0
   21.9078    0.0110   -0.1772 C   0  0  0  0  0  0  0  0  0  0  0  0
   23.2422    0.0214   -0.1737 C   0  0  0  0  0  0  0  0  0  0  0  0
   24.4750    0.0299   -0.1651 C   0  0  0  0  0  0  0  0  0  0  0  0
   25.8142    0.0322   -0.1461 C   0  0  0  0  0  0  0  0  0  0  0  0
   27.0404    0.0300   -0.1221 C   0  0  0  0  0  0  0  0  0  0  0  0
  2  3  4  0  0  0  0
  3  4  4  0  0  0  0
  4  5  2  0  0  0  0
  5  6  4  0  0  0  0
  1  7  1  0  0  0  0
  3  7  4  0  0  0  0
  6  7  4  0  0  0  0
  6  8  4  0  0  0  0
  8  9  1  0  0  0  0
  9 10  4  0  0  0  0
 10 11  4  0  0  0  0
 11 12  4  0  0  0  0
 12 13  1  0  0  0  0
 13 14  2  0  0  0  0
 12 15  4  0  0  0  0
  9 16  4  0  0  0  0
 15 16  4  0  0  0  0
  8 17  4  0  0  0  0
 17 18  4  0  0  0  0
 18 19  2  0  0  0  0
  1 20  1  0  0  0  0
 17 20  4  0  0  0  0
 19 21  4  0  0  0  0
 20 21  4  0  0  0  0
 21 22  4  0  0  0  0
 22 23  4  0  0  0  0
 23 24  4  0  0  0  0
 24 25  2  0  0  0  0
 25 26  4  0  0  0  0
  1 27  1  0  0  0  0
 23 27  4  0  0  0  0
 26 27  4  0  0  0  0
 26 28  4  0  0  0  0
 28 29  1  0  0  0  0
 29 30  4  0  0  0  0
 30 31  4  0  0  0  0
 31 32  4  0  0  0  0
 32 33  1  0  0  0  0
 33 34  2  0  0  0  0
 32 35  4  0  0  0  0
 29 36  4  0  0  0  0
 35 36  4  0  0  0  0
 28 37  4  0  0  0  0
 37 38  4  0  0  0  0
 38 39  2  0  0  0  0
  2 40  4  0  0  0  0
 39 40  4  0  0  0  0
  1 41  1  0  0  0  0
 37 41  4  0  0  0  0
 40 41  4  0  0  0  0
  2 42  1  0  0  0  0
  4 43  1  0  0  0  0
  5 44  1  0  0  0  0
 10 45  1  0  0  0  0
 11 46  1  0  0  0  0
 13 47  1  0  0  0  0
 15 48  1  0  0  0  0
 16 49  1  0  0  0  0
 18 50  1  0  0  0  0
 19 51  1  0  0  0  0
 24 52  1  0  0  0  0
 25 53  1  0  0  0  0
 30 54  1  0  0  0  0
 31 55  1  0  0  0  0
 33 56  1  0  0  0  0
 35 57  1  0  0  0  0
 36 58  1  0  0  0  0
 38 59  1  0  0  0  0
 39 60  1  0  0  0  0
 62 63  4  0  0  0  0
 63 64  4  0  0  0  0
 64 65  2  0  0  0  0
 65 66  4  0  0  0  0
 61 67  1  0  0  0  0
 63 67  4  0  0  0  0
 66 67  4  0  0  0  0
 66 68  4  0  0  0  0
 68 69  1  0  0  0  0
 69 70  4  0  0  0  0
 70 71  4  0  0  0  0
 71 72  4  0  0  0  0
 72 73  1  0  0  0  0
 73 74  2  0  0  0  0
 72 75  4  0  0  0  0
 69 76  4  0  0  0  0
 75 76  4  0  0  0  0
 68 77  4  0  0  0  0
 77 78  4  0  0  0  0
 78 79  2  0  0  0  0
 61 80  1  0  0  0  0
 77 80  4  0  0  0  0
 79 81  4  0  0  0  0
 80 81  4  0  0  0  0
 81 82  4  0  0  0  0
 82 83  4  0  0  0  0
 83 84  4  0  0  0  0
 84 85  2  0  0  0  0
 85 86  4  0  0  0  0
 61 87  1  0  0  0  0
 83 87  4  0  0  0  0
 86 87  4  0  0  0  0
 86 88  4  0  0  0  0
 88 89  1  0  0  0  0
 89 90  4  0  0  0  0
 90 91  4  0  0  0  0
 91 92  4  0  0  0  0
 92 93  1  0  0  0  0
 93 94  2  0  0  0  0
 92 95  4  0  0  0  0
 89 96  4  0  0  0  0
 95 96  4  0  0  0  0
 88 97  4  0  0  0  0
 97 98  4  0  0  0  0
 98 99  2  0  0  0  0
 62100  4  0  0  0  0
 99100  4  0  0  0  0
 61101  1  0  0  0  0
 97101  4  0  0  0  0
100101  4  0  0  0  0
 62102  1  0  0  0  0
 64103  1  0  0  0  0
 65104  1  0  0  0  0
 70105  1  0  0  0  0
 71106  1  0  0  0  0
 73107  1  0  0  0  0
 75108  1  0  0  0  0
 76109  1  0  0  0  0
 78110  1  0  0  0  0
 79111  1  0  0  0  0
 84112  1  0  0  0  0
 85113  1  0  0  0  0
 90114  1  0  0  0  0
 91115  1  0  0  0  0
 93116  1  0  0  0  0
 95117  1  0  0  0  0
 96118  1  0  0  0  0
 98119  1  0  0  0  0
 99120  1  0  0  0  0
 22121  4  0  0  0  0
121122  3  0  0  0  0
122123  4  0  0  0  0
123124  3  0  0  0  0
124125  4  0  0  0  0
125126  3  0  0  0  0
126127  4  0  0  0  0
 82128  4  0  0  0  0
127128  3  0  0  0  0
M  END
