 xtb: 6.5.1 (b24c23e)
          07302215233D

200220  0     0  0            999 V2000
   29.7209   -0.0997    0.0941 C   0  0  0  0  0  0  0  0  0  0  0  0
   30.3381   -1.3313   -0.0822 C   0  0  0  0  0  0  0  0  0  0  0  0
   29.6957   -2.5948   -0.2112 C   0  0  0  0  0  0  0  0  0  0  0  0
   30.6631   -3.5427   -0.3916 C   0  0  0  0  0  0  0  0  0  0  0  0
   31.9278   -2.8874   -0.3858 C   0  0  0  0  0  0  0  0  0  0  0  0
   31.6815   -1.5592   -0.1854 N   0  0  0  0  0  0  0  0  0  0  0  0
   33.1937   -3.4675   -0.5267 C   0  0  0  0  0  0  0  0  0  0  0  0
   34.4059   -2.7761   -0.4569 C   0  0  0  0  0  0  0  0  0  0  0  0
   35.7052   -3.3938   -0.6550 C   0  0  0  0  0  0  0  0  0  0  0  0
   36.6205   -2.4144   -0.5058 C   0  0  0  0  0  0  0  0  0  0  0  0
   34.5530   -1.4444   -0.2175 N   0  0  0  0  0  0  0  0  0  0  0  0
   35.8789   -1.1986   -0.2314 C   0  0  0  0  0  0  0  0  0  0  0  0
   36.5088    0.0440   -0.0191 C   0  0  0  0  0  0  0  0  0  0  0  0
   35.8666    1.2782    0.1920 C   0  0  0  0  0  0  0  0  0  0  0  0
   36.5042    2.5265    0.4203 C   0  0  0  0  0  0  0  0  0  0  0  0
   35.5318    3.4768    0.5637 C   0  0  0  0  0  0  0  0  0  0  0  0
   34.2690    2.8373    0.4197 C   0  0  0  0  0  0  0  0  0  0  0  0
   33.0030    3.4261    0.5100 C   0  0  0  0  0  0  0  0  0  0  0  0
   32.9644    4.8925    0.7178 C   0  0  0  0  0  0  0  0  0  0  0  0
   33.5346    5.7556   -0.2223 C   0  0  0  0  0  0  0  0  0  0  0  0
   33.4971    7.1238   -0.0274 C   0  0  0  0  0  0  0  0  0  0  0  0
   32.8942    7.6556    1.1142 C   0  0  0  0  0  0  0  0  0  0  0  0
   32.8819    9.1286    1.2799 C   0  0  0  0  0  0  0  0  0  0  0  0
   32.2779    9.5372    2.4062 O   0  0  0  0  0  0  0  0  0  0  0  0
   33.3613    9.9057    0.4938 O   0  0  0  0  0  0  0  0  0  0  0  0
   32.3262    6.7985    2.0574 C   0  0  0  0  0  0  0  0  0  0  0  0
   32.3598    5.4296    1.8574 C   0  0  0  0  0  0  0  0  0  0  0  0
   31.7896    2.7351    0.4211 C   0  0  0  0  0  0  0  0  0  0  0  0
   30.4808    3.3689    0.4669 C   0  0  0  0  0  0  0  0  0  0  0  0
   29.5729    2.3785    0.3558 C   0  0  0  0  0  0  0  0  0  0  0  0
   30.3257    1.1429    0.2285 C   0  0  0  0  0  0  0  0  0  0  0  0
   31.6570    1.3974    0.2624 N   0  0  0  0  0  0  0  0  0  0  0  0
   34.5233    1.5088    0.2053 N   0  0  0  0  0  0  0  0  0  0  0  0
   33.2322   -4.9287   -0.7726 C   0  0  0  0  0  0  0  0  0  0  0  0
   32.6246   -5.4681   -1.9095 C   0  0  0  0  0  0  0  0  0  0  0  0
   32.6629   -6.8306   -2.1489 C   0  0  0  0  0  0  0  0  0  0  0  0
   33.3065   -7.6791   -1.2475 C   0  0  0  0  0  0  0  0  0  0  0  0
   33.3724   -9.1452   -1.4567 C   0  0  0  0  0  0  0  0  0  0  0  0
   32.7712   -9.5540   -2.5845 O   0  0  0  0  0  0  0  0  0  0  0  0
   33.9086   -9.9169   -0.7026 O   0  0  0  0  0  0  0  0  0  0  0  0
   33.9112   -7.1452   -0.1078 C   0  0  0  0  0  0  0  0  0  0  0  0
   33.8765   -5.7830    0.1264 C   0  0  0  0  0  0  0  0  0  0  0  0
   28.6361   -0.1195    0.1215 H   0  0  0  0  0  0  0  0  0  0  0  0
   28.6291   -2.7459   -0.1652 H   0  0  0  0  0  0  0  0  0  0  0  0
   30.5200   -4.6047   -0.5090 H   0  0  0  0  0  0  0  0  0  0  0  0
   32.4010   -0.8468   -0.1216 H   0  0  0  0  0  0  0  0  0  0  0  0
   35.8726   -4.4325   -0.8893 H   0  0  0  0  0  0  0  0  0  0  0  0
   37.6941   -2.4796   -0.5804 H   0  0  0  0  0  0  0  0  0  0  0  0
   37.5716    2.6682    0.4721 H   0  0  0  0  0  0  0  0  0  0  0  0
   35.6733    4.5264    0.7630 H   0  0  0  0  0  0  0  0  0  0  0  0
   33.9909    5.3459   -1.1163 H   0  0  0  0  0  0  0  0  0  0  0  0
   33.9321    7.7990   -0.7561 H   0  0  0  0  0  0  0  0  0  0  0  0
   32.3120   10.5070    2.4393 H   0  0  0  0  0  0  0  0  0  0  0  0
   31.8613    7.2066    2.9470 H   0  0  0  0  0  0  0  0  0  0  0  0
   31.9308    4.7635    2.5973 H   0  0  0  0  0  0  0  0  0  0  0  0
   30.3057    4.4288    0.5574 H   0  0  0  0  0  0  0  0  0  0  0  0
   28.4964    2.4469    0.3465 H   0  0  0  0  0  0  0  0  0  0  0  0
   33.8054    0.8020    0.0842 H   0  0  0  0  0  0  0  0  0  0  0  0
   32.1369   -4.8079   -2.6179 H   0  0  0  0  0  0  0  0  0  0  0  0
   32.1957   -7.2399   -3.0368 H   0  0  0  0  0  0  0  0  0  0  0  0
   32.8601  -10.5188   -2.6478 H   0  0  0  0  0  0  0  0  0  0  0  0
   34.4055   -7.8142    0.5880 H   0  0  0  0  0  0  0  0  0  0  0  0
   34.3358   -5.3719    1.0180 H   0  0  0  0  0  0  0  0  0  0  0  0
   68.5070    0.0722    0.1202 C   0  0  0  0  0  0  0  0  0  0  0  0
   67.8802    1.2476    0.5132 C   0  0  0  0  0  0  0  0  0  0  0  0
   68.5123    2.4402    0.9646 C   0  0  0  0  0  0  0  0  0  0  0  0
   67.5372    3.3613    1.2247 C   0  0  0  0  0  0  0  0  0  0  0  0
   66.2779    2.7635    0.9322 C   0  0  0  0  0  0  0  0  0  0  0  0
   66.5349    1.4873    0.5194 N   0  0  0  0  0  0  0  0  0  0  0  0
   65.0074    3.3375    1.0544 C   0  0  0  0  0  0  0  0  0  0  0  0
   63.8013    2.6792    0.7997 C   0  0  0  0  0  0  0  0  0  0  0  0
   62.4982    3.3154    0.8760 C   0  0  0  0  0  0  0  0  0  0  0  0
   61.5904    2.3636    0.5771 C   0  0  0  0  0  0  0  0  0  0  0  0
   63.6644    1.3752    0.4354 N   0  0  0  0  0  0  0  0  0  0  0  0
   62.3405    1.1522    0.3066 C   0  0  0  0  0  0  0  0  0  0  0  0
   61.7196   -0.0683   -0.0262 C   0  0  0  0  0  0  0  0  0  0  0  0
   62.3714   -1.2700   -0.3596 C   0  0  0  0  0  0  0  0  0  0  0  0
   61.7445   -2.5017   -0.6862 C   0  0  0  0  0  0  0  0  0  0  0  0
   62.7244   -3.4088   -0.9798 C   0  0  0  0  0  0  0  0  0  0  0  0
   63.9812   -2.7552   -0.8474 C   0  0  0  0  0  0  0  0  0  0  0  0
   65.2516   -3.3084   -1.0414 C   0  0  0  0  0  0  0  0  0  0  0  0
   65.3015   -4.7149   -1.5039 C   0  0  0  0  0  0  0  0  0  0  0  0
   64.7169   -5.0798   -2.7201 C   0  0  0  0  0  0  0  0  0  0  0  0
   64.7667   -6.3917   -3.1533 C   0  0  0  0  0  0  0  0  0  0  0  0
   65.3965   -7.3658   -2.3762 C   0  0  0  0  0  0  0  0  0  0  0  0
   65.4228   -8.7587   -2.8826 C   0  0  0  0  0  0  0  0  0  0  0  0
   66.0515   -9.6159   -2.0640 O   0  0  0  0  0  0  0  0  0  0  0  0
   64.9330   -9.1131   -3.9249 O   0  0  0  0  0  0  0  0  0  0  0  0
   65.9783   -7.0080   -1.1595 C   0  0  0  0  0  0  0  0  0  0  0  0
   65.9322   -5.6931   -0.7305 C   0  0  0  0  0  0  0  0  0  0  0  0
   66.4597   -2.6344   -0.8312 C   0  0  0  0  0  0  0  0  0  0  0  0
   67.7728   -3.2078   -1.0839 C   0  0  0  0  0  0  0  0  0  0  0  0
   68.6732   -2.2612   -0.7515 C   0  0  0  0  0  0  0  0  0  0  0  0
   67.9115   -1.1059   -0.3104 C   0  0  0  0  0  0  0  0  0  0  0  0
   66.5822   -1.3633   -0.3821 N   0  0  0  0  0  0  0  0  0  0  0  0
   63.7162   -1.4686   -0.4605 N   0  0  0  0  0  0  0  0  0  0  0  0
   64.9545    4.7541    1.4867 C   0  0  0  0  0  0  0  0  0  0  0  0
   65.5651    5.7504    0.7206 C   0  0  0  0  0  0  0  0  0  0  0  0
   65.5115    7.0753    1.1168 C   0  0  0  0  0  0  0  0  0  0  0  0
   64.8492    7.4250    2.2940 C   0  0  0  0  0  0  0  0  0  0  0  0
   64.7645    8.8289    2.7623 C   0  0  0  0  0  0  0  0  0  0  0  0
   65.3710    9.7044    1.9462 O   0  0  0  0  0  0  0  0  0  0  0  0
   64.2113    9.1764    3.7746 O   0  0  0  0  0  0  0  0  0  0  0  0
   64.2416    6.4323    3.0654 C   0  0  0  0  0  0  0  0  0  0  0  0
   64.2916    5.1101    2.6646 C   0  0  0  0  0  0  0  0  0  0  0  0
   69.5919    0.0875    0.1504 H   0  0  0  0  0  0  0  0  0  0  0  0
   69.5778    2.5628    1.0764 H   0  0  0  0  0  0  0  0  0  0  0  0
   67.6717    4.3645    1.5955 H   0  0  0  0  0  0  0  0  0  0  0  0
   65.8212    0.8160    0.2564 H   0  0  0  0  0  0  0  0  0  0  0  0
   62.3236    4.3525    1.1124 H   0  0  0  0  0  0  0  0  0  0  0  0
   60.5168    2.4497    0.5275 H   0  0  0  0  0  0  0  0  0  0  0  0
   60.6787   -2.6638   -0.6896 H   0  0  0  0  0  0  0  0  0  0  0  0
   62.5919   -4.4428   -1.2535 H   0  0  0  0  0  0  0  0  0  0  0  0
   64.2400   -4.3227   -3.3322 H   0  0  0  0  0  0  0  0  0  0  0  0
   64.3211   -6.6798   -4.0992 H   0  0  0  0  0  0  0  0  0  0  0  0
   66.0248  -10.5000   -2.4648 H   0  0  0  0  0  0  0  0  0  0  0  0
   66.4639   -7.7616   -0.5509 H   0  0  0  0  0  0  0  0  0  0  0  0
   66.3722   -5.4183    0.2215 H   0  0  0  0  0  0  0  0  0  0  0  0
   67.9556   -4.1957   -1.4751 H   0  0  0  0  0  0  0  0  0  0  0  0
   69.7499   -2.3065   -0.7996 H   0  0  0  0  0  0  0  0  0  0  0  0
   64.4280   -0.7703   -0.2728 H   0  0  0  0  0  0  0  0  0  0  0  0
   66.0670    5.4817   -0.2021 H   0  0  0  0  0  0  0  0  0  0  0  0
   65.9810    7.8427    0.5128 H   0  0  0  0  0  0  0  0  0  0  0  0
   65.2693   10.5947    2.3203 H   0  0  0  0  0  0  0  0  0  0  0  0
   63.7325    6.7146    3.9804 H   0  0  0  0  0  0  0  0  0  0  0  0
   63.8295    4.3394    3.2710 H   0  0  0  0  0  0  0  0  0  0  0  0
   41.7115    0.0965    0.0071 C   0  0  0  0  0  0  0  0  0  0  0  0
   40.4836    0.0937   -0.0043 C   0  0  0  0  0  0  0  0  0  0  0  0
   39.1388    0.0833   -0.0134 C   0  0  0  0  0  0  0  0  0  0  0  0
   37.9153    0.0671   -0.0198 C   0  0  0  0  0  0  0  0  0  0  0  0
   43.0562    0.0965    0.0204 C   0  0  0  0  0  0  0  0  0  0  0  0
   44.2799    0.0914    0.0357 C   0  0  0  0  0  0  0  0  0  0  0  0
   57.7448   -0.1211   -0.0209 C   0  0  0  0  0  0  0  0  0  0  0  0
   56.5169   -0.1133   -0.0102 C   0  0  0  0  0  0  0  0  0  0  0  0
   55.1723   -0.0966    0.0045 C   0  0  0  0  0  0  0  0  0  0  0  0
   53.9489   -0.0696    0.0193 C   0  0  0  0  0  0  0  0  0  0  0  0
   59.0897   -0.1148   -0.0286 C   0  0  0  0  0  0  0  0  0  0  0  0
   60.3132   -0.0985   -0.0321 C   0  0  0  0  0  0  0  0  0  0  0  0
   45.6856    0.0829    0.0492 C   0  0  0  0  0  0  0  0  0  0  0  0
   46.3250    1.0209   -0.7829 C   0  0  0  0  0  0  0  0  0  0  0  0
   45.6892    1.9538   -1.6428 C   0  0  0  0  0  0  0  0  0  0  0  0
   46.6636    2.6899   -2.2588 C   0  0  0  0  0  0  0  0  0  0  0  0
   47.9239    2.2315   -1.7862 C   0  0  0  0  0  0  0  0  0  0  0  0
   47.6685    1.2164   -0.9042 N   0  0  0  0  0  0  0  0  0  0  0  0
   49.1899    2.6983   -2.1600 C   0  0  0  0  0  0  0  0  0  0  0  0
   50.4092    2.1820   -1.7171 C   0  0  0  0  0  0  0  0  0  0  0  0
   51.7025    2.7294   -2.0875 C   0  0  0  0  0  0  0  0  0  0  0  0
   52.6303    1.9637   -1.4772 C   0  0  0  0  0  0  0  0  0  0  0  0
   50.5722    1.1216   -0.8800 N   0  0  0  0  0  0  0  0  0  0  0  0
   51.9025    0.9594   -0.7266 C   0  0  0  0  0  0  0  0  0  0  0  0
   52.5436   -0.0359    0.0369 C   0  0  0  0  0  0  0  0  0  0  0  0
   51.9034   -1.0037    0.8337 C   0  0  0  0  0  0  0  0  0  0  0  0
   52.5374   -2.0106    1.6069 C   0  0  0  0  0  0  0  0  0  0  0  0
   51.5634   -2.7160    2.2588 C   0  0  0  0  0  0  0  0  0  0  0  0
   50.3054   -2.1553    1.9057 C   0  0  0  0  0  0  0  0  0  0  0  0
   49.0407   -2.5743    2.3362 C   0  0  0  0  0  0  0  0  0  0  0  0
   49.0149   -3.6773    3.3272 C   0  0  0  0  0  0  0  0  0  0  0  0
   48.3944   -4.8918    3.0234 C   0  0  0  0  0  0  0  0  0  0  0  0
   48.3700   -5.9145    3.9537 C   0  0  0  0  0  0  0  0  0  0  0  0
   48.9613   -5.7406    5.2065 C   0  0  0  0  0  0  0  0  0  0  0  0
   48.9033   -6.8633    6.1732 C   0  0  0  0  0  0  0  0  0  0  0  0
   49.5069   -6.5970    7.3415 O   0  0  0  0  0  0  0  0  0  0  0  0
   48.3718   -7.9221    5.9551 O   0  0  0  0  0  0  0  0  0  0  0  0
   49.5823   -4.5299    5.5147 C   0  0  0  0  0  0  0  0  0  0  0  0
   49.6104   -3.5098    4.5801 C   0  0  0  0  0  0  0  0  0  0  0  0
   47.8214   -2.0400    1.9158 C   0  0  0  0  0  0  0  0  0  0  0  0
   46.5298   -2.4750    2.4179 C   0  0  0  0  0  0  0  0  0  0  0  0
   45.6016   -1.7393    1.7725 C   0  0  0  0  0  0  0  0  0  0  0  0
   46.3278   -0.8474    0.8900 C   0  0  0  0  0  0  0  0  0  0  0  0
   47.6573   -1.0433    1.0038 N   0  0  0  0  0  0  0  0  0  0  0  0
   50.5612   -1.1312    1.0342 N   0  0  0  0  0  0  0  0  0  0  0  0
   49.2174    3.8371   -3.1093 C   0  0  0  0  0  0  0  0  0  0  0  0
   48.6428    5.0623   -2.7606 C   0  0  0  0  0  0  0  0  0  0  0  0
   48.6704    6.1235   -3.6466 C   0  0  0  0  0  0  0  0  0  0  0  0
   49.2683    5.9782   -4.8998 C   0  0  0  0  0  0  0  0  0  0  0  0
   49.2708    7.1441   -5.8156 C   0  0  0  0  0  0  0  0  0  0  0  0
   49.8861    6.9076   -6.9839 O   0  0  0  0  0  0  0  0  0  0  0  0
   48.7752    8.2117   -5.5586 O   0  0  0  0  0  0  0  0  0  0  0  0
   49.8404    4.7560   -5.2541 C   0  0  0  0  0  0  0  0  0  0  0  0
   49.8157    3.6966   -4.3641 C   0  0  0  0  0  0  0  0  0  0  0  0
   44.6224    2.0404   -1.7711 H   0  0  0  0  0  0  0  0  0  0  0  0
   46.5241    3.4744   -2.9844 H   0  0  0  0  0  0  0  0  0  0  0  0
   48.3817    0.6840   -0.4173 H   0  0  0  0  0  0  0  0  0  0  0  0
   51.8574    3.5903   -2.7172 H   0  0  0  0  0  0  0  0  0  0  0  0
   53.7042    2.0543   -1.5076 H   0  0  0  0  0  0  0  0  0  0  0  0
   53.6027   -2.1696    1.6509 H   0  0  0  0  0  0  0  0  0  0  0  0
   51.7011   -3.5571    2.9184 H   0  0  0  0  0  0  0  0  0  0  0  0
   47.9451   -5.0326    2.0470 H   0  0  0  0  0  0  0  0  0  0  0  0
   47.8937   -6.8612    3.7234 H   0  0  0  0  0  0  0  0  0  0  0  0
   49.4231   -7.3756    7.9156 H   0  0  0  0  0  0  0  0  0  0  0  0
   50.0395   -4.3893    6.4870 H   0  0  0  0  0  0  0  0  0  0  0  0
   50.0809   -2.5640    4.8247 H   0  0  0  0  0  0  0  0  0  0  0  0
   46.3762   -3.2317    3.1700 H   0  0  0  0  0  0  0  0  0  0  0  0
   44.5286   -1.7695    1.8735 H   0  0  0  0  0  0  0  0  0  0  0  0
   49.8492   -0.5526    0.6011 H   0  0  0  0  0  0  0  0  0  0  0  0
   48.1905    5.1815   -1.7826 H   0  0  0  0  0  0  0  0  0  0  0  0
   48.2317    7.0788   -3.3801 H   0  0  0  0  0  0  0  0  0  0  0  0
   49.8455    7.7147   -7.5222 H   0  0  0  0  0  0  0  0  0  0  0  0
   50.3015    4.6376   -6.2275 H   0  0  0  0  0  0  0  0  0  0  0  0
   50.2488    2.7430   -4.6441 H   0  0  0  0  0  0  0  0  0  0  0  0
  1  2  4  0  0  0  0
  2  3  4  0  0  0  0
  3  4  2  0  0  0  0
  4  5  4  0  0  0  0
  2  6  4  0  0  0  0
  5  6  4  0  0  0  0
  5  7  4  0  0  0  0
  7  8  4  0  0  0  0
  8  9  1  0  0  0  0
  9 10  2  0  0  0  0
  8 11  4  0  0  0  0
 10 12  1  0  0  0  0
 11 12  4  0  0  0  0
 12 13  4  0  0  0  0
 13 14  4  0  0  0  0
 14 15  4  0  0  0  0
 15 16  2  0  0  0  0
 16 17  4  0  0  0  0
 17 18  4  0  0  0  0
 18 19  1  0  0  0  0
 19 20  4  0  0  0  0
 20 21  4  0  0  0  0
 21 22  4  0  0  0  0
 22 23  1  0  0  0  0
 23 24  4  0  0  0  0
 23 25  2  0  0  0  0
 22 26  4  0  0  0  0
 19 27  4  0  0  0  0
 26 27  4  0  0  0  0
 18 28  4  0  0  0  0
 28 29  1  0  0  0  0
 29 30  2  0  0  0  0
  1 31  4  0  0  0  0
 30 31  1  0  0  0  0
 28 32  4  0  0  0  0
 31 32  4  0  0  0  0
 14 33  4  0  0  0  0
 17 33  4  0  0  0  0
  7 34  1  0  0  0  0
 34 35  4  0  0  0  0
 35 36  4  0  0  0  0
 36 37  4  0  0  0  0
 37 38  1  0  0  0  0
 38 39  4  0  0  0  0
 38 40  2  0  0  0  0
 37 41  4  0  0  0  0
 34 42  4  0  0  0  0
 41 42  4  0  0  0  0
  1 43  1  0  0  0  0
  3 44  1  0  0  0  0
  4 45  1  0  0  0  0
  6 46  1  0  0  0  0
  9 47  1  0  0  0  0
 10 48  1  0  0  0  0
 15 49  1  0  0  0  0
 16 50  1  0  0  0  0
 20 51  1  0  0  0  0
 21 52  1  0  0  0  0
 24 53  1  0  0  0  0
 26 54  1  0  0  0  0
 27 55  1  0  0  0  0
 29 56  1  0  0  0  0
 30 57  1  0  0  0  0
 33 58  1  0  0  0  0
 35 59  1  0  0  0  0
 36 60  1  0  0  0  0
 39 61  1  0  0  0  0
 41 62  1  0  0  0  0
 42 63  1  0  0  0  0
 64 65  4  0  0  0  0
 65 66  4  0  0  0  0
 66 67  2  0  0  0  0
 67 68  4  0  0  0  0
 65 69  4  0  0  0  0
 68 69  4  0  0  0  0
 68 70  4  0  0  0  0
 70 71  4  0  0  0  0
 71 72  1  0  0  0  0
 72 73  2  0  0  0  0
 71 74  4  0  0  0  0
 73 75  1  0  0  0  0
 74 75  4  0  0  0  0
 75 76  4  0  0  0  0
 76 77  4  0  0  0  0
 77 78  4  0  0  0  0
 78 79  2  0  0  0  0
 79 80  4  0  0  0  0
 80 81  4  0  0  0  0
 81 82  1  0  0  0  0
 82 83  4  0  0  0  0
 83 84  4  0  0  0  0
 84 85  4  0  0  0  0
 85 86  1  0  0  0  0
 86 87  4  0  0  0  0
 86 88  2  0  0  0  0
 85 89  4  0  0  0  0
 82 90  4  0  0  0  0
 89 90  4  0  0  0  0
 81 91  4  0  0  0  0
 91 92  1  0  0  0  0
 92 93  2  0  0  0  0
 64 94  4  0  0  0  0
 93 94  1  0  0  0  0
 91 95  4  0  0  0  0
 94 95  4  0  0  0  0
 77 96  4  0  0  0  0
 80 96  4  0  0  0  0
 70 97  1  0  0  0  0
 97 98  4  0  0  0  0
 98 99  4  0  0  0  0
 99100  4  0  0  0  0
100101  1  0  0  0  0
101102  4  0  0  0  0
101103  2  0  0  0  0
100104  4  0  0  0  0
 97105  4  0  0  0  0
104105  4  0  0  0  0
 64106  1  0  0  0  0
 66107  1  0  0  0  0
 67108  1  0  0  0  0
 69109  1  0  0  0  0
 72110  1  0  0  0  0
 73111  1  0  0  0  0
 78112  1  0  0  0  0
 79113  1  0  0  0  0
 83114  1  0  0  0  0
 84115  1  0  0  0  0
 87116  1  0  0  0  0
 89117  1  0  0  0  0
 90118  1  0  0  0  0
 92119  1  0  0  0  0
 93120  1  0  0  0  0
 96121  1  0  0  0  0
 98122  1  0  0  0  0
 99123  1  0  0  0  0
102124  1  0  0  0  0
104125  1  0  0  0  0
105126  1  0  0  0  0
127128  3  0  0  0  0
128129  4  0  0  0  0
 13130  4  0  0  0  0
129130  3  0  0  0  0
127131  4  0  0  0  0
131132  3  0  0  0  0
133134  3  0  0  0  0
134135  4  0  0  0  0
135136  3  0  0  0  0
133137  4  0  0  0  0
 76138  4  0  0  0  0
137138  3  0  0  0  0
132139  4  0  0  0  0
139140  4  0  0  0  0
140141  4  0  0  0  0
141142  2  0  0  0  0
142143  4  0  0  0  0
140144  4  0  0  0  0
143144  4  0  0  0  0
143145  4  0  0  0  0
145146  4  0  0  0  0
146147  1  0  0  0  0
147148  2  0  0  0  0
146149  4  0  0  0  0
148150  1  0  0  0  0
149150  4  0  0  0  0
136151  4  0  0  0  0
150151  4  0  0  0  0
151152  4  0  0  0  0
152153  4  0  0  0  0
153154  2  0  0  0  0
154155  4  0  0  0  0
155156  4  0  0  0  0
156157  1  0  0  0  0
157158  4  0  0  0  0
158159  4  0  0  0  0
159160  4  0  0  0  0
160161  1  0  0  0  0
161162  4  0  0  0  0
161163  2  0  0  0  0
160164  4  0  0  0  0
157165  4  0  0  0  0
164165  4  0  0  0  0
156166  4  0  0  0  0
166167  1  0  0  0  0
167168  2  0  0  0  0
139169  4  0  0  0  0
168169  1  0  0  0  0
166170  4  0  0  0  0
169170  4  0  0  0  0
152171  4  0  0  0  0
155171  4  0  0  0  0
145172  1  0  0  0  0
172173  4  0  0  0  0
173174  4  0  0  0  0
174175  4  0  0  0  0
175176  1  0  0  0  0
176177  4  0  0  0  0
176178  2  0  0  0  0
175179  4  0  0  0  0
172180  4  0  0  0  0
179180  4  0  0  0  0
141181  1  0  0  0  0
142182  1  0  0  0  0
144183  1  0  0  0  0
147184  1  0  0  0  0
148185  1  0  0  0  0
153186  1  0  0  0  0
154187  1  0  0  0  0
158188  1  0  0  0  0
159189  1  0  0  0  0
162190  1  0  0  0  0
164191  1  0  0  0  0
165192  1  0  0  0  0
167193  1  0  0  0  0
168194  1  0  0  0  0
171195  1  0  0  0  0
173196  1  0  0  0  0
174197  1  0  0  0  0
177198  1  0  0  0  0
179199  1  0  0  0  0
180200  1  0  0  0  0
M  END
