 xtb: 6.5.1 (b24c23e)
          07292220153D

310349  0     0  0            999 V2000
   39.0930    0.0931   -0.0738 Fe  0  0  0  0  0  0  0  0  0  0  0  0
   35.7130    0.3485   -0.2839 C   0  0  0  0  0  0  0  0  0  0  0  0
   36.3636    1.1553    0.6262 C   0  0  0  0  0  0  0  0  0  0  0  0
   35.6851    2.0590    1.5060 C   0  0  0  0  0  0  0  0  0  0  0  0
   36.6353    2.6287    2.2836 C   0  0  0  0  0  0  0  0  0  0  0  0
   37.8946    2.0849    1.8660 C   0  0  0  0  0  0  0  0  0  0  0  0
   37.7152    1.1862    0.8489 N   0  0  0  0  0  0  0  0  0  0  0  0
   39.1124    2.4313    2.4370 C   0  0  0  0  0  0  0  0  0  0  0  0
   40.3237    1.9155    2.0044 C   0  0  0  0  0  0  0  0  0  0  0  0
   41.5911    2.3157    2.5386 C   0  0  0  0  0  0  0  0  0  0  0  0
   42.5395    1.6574    1.8308 C   0  0  0  0  0  0  0  0  0  0  0  0
   40.4997    1.0158    0.9794 N   0  0  0  0  0  0  0  0  0  0  0  0
   41.8486    0.8532    0.8713 C   0  0  0  0  0  0  0  0  0  0  0  0
   42.5075    0.0255   -0.0446 C   0  0  0  0  0  0  0  0  0  0  0  0
   41.8319   -0.8037   -0.9469 C   0  0  0  0  0  0  0  0  0  0  0  0
   42.5061   -1.7090   -1.8249 C   0  0  0  0  0  0  0  0  0  0  0  0
   41.5442   -2.3879   -2.4938 C   0  0  0  0  0  0  0  0  0  0  0  0
   40.2851   -1.8817   -2.0351 C   0  0  0  0  0  0  0  0  0  0  0  0
   39.0600   -2.3351   -2.4971 C   0  0  0  0  0  0  0  0  0  0  0  0
   39.0398   -3.4182   -3.5192 C   0  0  0  0  0  0  0  0  0  0  0  0
   39.4638   -3.1662   -4.8306 C   0  0  0  0  0  0  0  0  0  0  0  0
   39.8723   -1.8962   -5.0883 O   0  0  0  0  0  0  0  0  0  0  0  0
   40.3302   -1.5378   -6.3764 C   0  0  0  0  0  0  0  0  0  0  0  0
   39.4416   -4.1822   -5.7856 C   0  0  0  0  0  0  0  0  0  0  0  0
   39.0004   -5.4461   -5.4239 C   0  0  0  0  0  0  0  0  0  0  0  0
   38.5774   -5.7189   -4.1318 C   0  0  0  0  0  0  0  0  0  0  0  0
   38.5939   -4.7018   -3.1779 C   0  0  0  0  0  0  0  0  0  0  0  0
   38.2044   -4.8702   -1.8871 O   0  0  0  0  0  0  0  0  0  0  0  0
   37.7515   -6.1300   -1.4339 C   0  0  0  0  0  0  0  0  0  0  0  0
   37.8475   -1.8110   -2.0669 C   0  0  0  0  0  0  0  0  0  0  0  0
   36.5759   -2.2157   -2.5919 C   0  0  0  0  0  0  0  0  0  0  0  0
   35.6403   -1.4441   -1.9908 C   0  0  0  0  0  0  0  0  0  0  0  0
   36.3407   -0.5755   -1.0931 C   0  0  0  0  0  0  0  0  0  0  0  0
   37.6900   -0.8053   -1.1517 N   0  0  0  0  0  0  0  0  0  0  0  0
   40.4797   -0.9065   -1.0849 N   0  0  0  0  0  0  0  0  0  0  0  0
   39.1215    3.4180    3.5526 C   0  0  0  0  0  0  0  0  0  0  0  0
   39.4201    3.0058    4.8579 C   0  0  0  0  0  0  0  0  0  0  0  0
   39.6789    1.6814    5.0165 O   0  0  0  0  0  0  0  0  0  0  0  0
   40.0000    1.1616    6.2908 C   0  0  0  0  0  0  0  0  0  0  0  0
   39.4305    3.9289    5.9032 C   0  0  0  0  0  0  0  0  0  0  0  0
   39.1491    5.2604    5.6372 C   0  0  0  0  0  0  0  0  0  0  0  0
   38.8552    5.6920    4.3525 C   0  0  0  0  0  0  0  0  0  0  0  0
   38.8391    4.7683    3.3078 C   0  0  0  0  0  0  0  0  0  0  0  0
   38.5696    5.0931    2.0161 O   0  0  0  0  0  0  0  0  0  0  0  0
   38.2947    6.4318    1.6562 C   0  0  0  0  0  0  0  0  0  0  0  0
   34.6336    0.4284   -0.3499 H   0  0  0  0  0  0  0  0  0  0  0  0
   34.6177    2.2136    1.5190 H   0  0  0  0  0  0  0  0  0  0  0  0
   36.5101    3.3541    3.0710 H   0  0  0  0  0  0  0  0  0  0  0  0
   41.7252    3.0165    3.3464 H   0  0  0  0  0  0  0  0  0  0  0  0
   43.6116    1.7001    1.9367 H   0  0  0  0  0  0  0  0  0  0  0  0
   43.5772   -1.8087   -1.8981 H   0  0  0  0  0  0  0  0  0  0  0  0
   41.6641   -3.1621   -3.2338 H   0  0  0  0  0  0  0  0  0  0  0  0
   39.5451   -1.6645   -7.1317 H   0  0  0  0  0  0  0  0  0  0  0  0
   40.6047   -0.4829   -6.3182 H   0  0  0  0  0  0  0  0  0  0  0  0
   41.2107   -2.1235   -6.6670 H   0  0  0  0  0  0  0  0  0  0  0  0
   39.7634   -3.9973   -6.8017 H   0  0  0  0  0  0  0  0  0  0  0  0
   38.9856   -6.2366   -6.1662 H   0  0  0  0  0  0  0  0  0  0  0  0
   38.2394   -6.7146   -3.8776 H   0  0  0  0  0  0  0  0  0  0  0  0
   37.5054   -6.0023   -0.3782 H   0  0  0  0  0  0  0  0  0  0  0  0
   36.8547   -6.4536   -1.9761 H   0  0  0  0  0  0  0  0  0  0  0  0
   38.5304   -6.8958   -1.5322 H   0  0  0  0  0  0  0  0  0  0  0  0
   36.4340   -2.9873   -3.3312 H   0  0  0  0  0  0  0  0  0  0  0  0
   34.5701   -1.4494   -2.1257 H   0  0  0  0  0  0  0  0  0  0  0  0
   40.1692    0.0926    6.1486 H   0  0  0  0  0  0  0  0  0  0  0  0
   39.1776    1.3046    7.0022 H   0  0  0  0  0  0  0  0  0  0  0  0
   40.9114    1.6200    6.6935 H   0  0  0  0  0  0  0  0  0  0  0  0
   39.6555    3.6205    6.9153 H   0  0  0  0  0  0  0  0  0  0  0  0
   39.1596    5.9786    6.4497 H   0  0  0  0  0  0  0  0  0  0  0  0
   38.6420    6.7374    4.1739 H   0  0  0  0  0  0  0  0  0  0  0  0
   39.1421    7.0904    1.8821 H   0  0  0  0  0  0  0  0  0  0  0  0
   38.1218    6.4269    0.5784 H   0  0  0  0  0  0  0  0  0  0  0  0
   37.3978    6.8085    2.1629 H   0  0  0  0  0  0  0  0  0  0  0  0
   94.7756    0.0612   -0.1284 Fe  0  0  0  0  0  0  0  0  0  0  0  0
   98.1517    0.3259   -0.3230 C   0  0  0  0  0  0  0  0  0  0  0  0
   97.5193   -0.5036   -1.2260 C   0  0  0  0  0  0  0  0  0  0  0  0
   98.2137   -1.2612   -2.2236 C   0  0  0  0  0  0  0  0  0  0  0  0
   97.2718   -1.9401   -2.9193 C   0  0  0  0  0  0  0  0  0  0  0  0
   96.0023   -1.5825   -2.3568 C   0  0  0  0  0  0  0  0  0  0  0  0
   96.1690   -0.7208   -1.3064 N   0  0  0  0  0  0  0  0  0  0  0  0
   94.7842   -2.0355   -2.8477 C   0  0  0  0  0  0  0  0  0  0  0  0
   93.5656   -1.6555   -2.3088 C   0  0  0  0  0  0  0  0  0  0  0  0
   92.3002   -2.0408   -2.8584 C   0  0  0  0  0  0  0  0  0  0  0  0
   91.3472   -1.4742   -2.0807 C   0  0  0  0  0  0  0  0  0  0  0  0
   93.3837   -0.8557   -1.2053 N   0  0  0  0  0  0  0  0  0  0  0  0
   92.0333   -0.7529   -1.0541 C   0  0  0  0  0  0  0  0  0  0  0  0
   91.3701   -0.0972   -0.0099 C   0  0  0  0  0  0  0  0  0  0  0  0
   92.0425    0.5696    1.0216 C   0  0  0  0  0  0  0  0  0  0  0  0
   91.3672    1.1772    2.1261 C   0  0  0  0  0  0  0  0  0  0  0  0
   92.3232    1.7444    2.8996 C   0  0  0  0  0  0  0  0  0  0  0  0
   93.5781    1.4951    2.2554 C   0  0  0  0  0  0  0  0  0  0  0  0
   94.7898    1.9822    2.7177 C   0  0  0  0  0  0  0  0  0  0  0  0
   94.7971    2.8250    3.9454 C   0  0  0  0  0  0  0  0  0  0  0  0
   94.2550    4.1170    3.9192 C   0  0  0  0  0  0  0  0  0  0  0  0
   93.7484    4.5236    2.7259 O   0  0  0  0  0  0  0  0  0  0  0  0
   93.1740    5.8077    2.5905 C   0  0  0  0  0  0  0  0  0  0  0  0
   94.2659    4.9089    5.0670 C   0  0  0  0  0  0  0  0  0  0  0  0
   94.8138    4.4037    6.2364 C   0  0  0  0  0  0  0  0  0  0  0  0
   95.3543    3.1277    6.2862 C   0  0  0  0  0  0  0  0  0  0  0  0
   95.3492    2.3374    5.1371 C   0  0  0  0  0  0  0  0  0  0  0  0
   95.8494    1.0752    5.0860 O   0  0  0  0  0  0  0  0  0  0  0  0
   96.4144    0.4818    6.2376 C   0  0  0  0  0  0  0  0  0  0  0  0
   95.9967    1.7441    2.0717 C   0  0  0  0  0  0  0  0  0  0  0  0
   97.2496    2.2976    2.4955 C   0  0  0  0  0  0  0  0  0  0  0  0
   98.1890    1.8475    1.6310 C   0  0  0  0  0  0  0  0  0  0  0  0
   97.5088    1.0172    0.6828 C   0  0  0  0  0  0  0  0  0  0  0  0
   96.1666    0.9716    0.9552 N   0  0  0  0  0  0  0  0  0  0  0  0
   93.3900    0.7480    1.1160 N   0  0  0  0  0  0  0  0  0  0  0  0
   94.7836   -2.9497   -4.0232 C   0  0  0  0  0  0  0  0  0  0  0  0
   94.4129   -4.2926   -3.8723 C   0  0  0  0  0  0  0  0  0  0  0  0
   94.0812   -4.6779   -2.6125 O   0  0  0  0  0  0  0  0  0  0  0  0
   93.6844   -6.0090   -2.3512 C   0  0  0  0  0  0  0  0  0  0  0  0
   94.4089   -5.1502   -4.9720 C   0  0  0  0  0  0  0  0  0  0  0  0
   94.7685   -4.6596   -6.2181 C   0  0  0  0  0  0  0  0  0  0  0  0
   95.1345   -3.3334   -6.3920 C   0  0  0  0  0  0  0  0  0  0  0  0
   95.1444   -2.4767   -5.2917 C   0  0  0  0  0  0  0  0  0  0  0  0
   95.4800   -1.1617   -5.3613 O   0  0  0  0  0  0  0  0  0  0  0  0
   95.8366   -0.5778   -6.5978 C   0  0  0  0  0  0  0  0  0  0  0  0
   99.2288    0.4268   -0.3975 H   0  0  0  0  0  0  0  0  0  0  0  0
   99.2844   -1.2629   -2.3547 H   0  0  0  0  0  0  0  0  0  0  0  0
   97.4084   -2.6185   -3.7459 H   0  0  0  0  0  0  0  0  0  0  0  0
   92.1713   -2.6601   -3.7311 H   0  0  0  0  0  0  0  0  0  0  0  0
   90.2748   -1.5350   -2.1755 H   0  0  0  0  0  0  0  0  0  0  0  0
   90.2998    1.1586    2.2774 H   0  0  0  0  0  0  0  0  0  0  0  0
   92.2019    2.2908    3.8207 H   0  0  0  0  0  0  0  0  0  0  0  0
   93.9063    6.5988    2.7926 H   0  0  0  0  0  0  0  0  0  0  0  0
   92.8415    5.8834    1.5536 H   0  0  0  0  0  0  0  0  0  0  0  0
   92.3111    5.9340    3.2555 H   0  0  0  0  0  0  0  0  0  0  0  0
   93.8536    5.9090    5.0564 H   0  0  0  0  0  0  0  0  0  0  0  0
   94.8201    5.0190    7.1294 H   0  0  0  0  0  0  0  0  0  0  0  0
   95.7740    2.7595    7.2127 H   0  0  0  0  0  0  0  0  0  0  0  0
   96.7341   -0.5180    5.9381 H   0  0  0  0  0  0  0  0  0  0  0  0
   97.2843    1.0461    6.5949 H   0  0  0  0  0  0  0  0  0  0  0  0
   95.6795    0.3976    7.0474 H   0  0  0  0  0  0  0  0  0  0  0  0
   97.3776    2.9475    3.3460 H   0  0  0  0  0  0  0  0  0  0  0  0
   99.2496    2.0444    1.6212 H   0  0  0  0  0  0  0  0  0  0  0  0
   93.4670   -6.0564   -1.2826 H   0  0  0  0  0  0  0  0  0  0  0  0
   94.4846   -6.7207   -2.5880 H   0  0  0  0  0  0  0  0  0  0  0  0
   92.7824   -6.2771   -2.9146 H   0  0  0  0  0  0  0  0  0  0  0  0
   94.1288   -6.1896   -4.8656 H   0  0  0  0  0  0  0  0  0  0  0  0
   94.7629   -5.3260   -7.0736 H   0  0  0  0  0  0  0  0  0  0  0  0
   95.4077   -2.9776   -7.3764 H   0  0  0  0  0  0  0  0  0  0  0  0
   95.0154   -0.6388   -7.3223 H   0  0  0  0  0  0  0  0  0  0  0  0
   96.0516    0.4715   -6.3871 H   0  0  0  0  0  0  0  0  0  0  0  0
   96.7306   -1.0501   -7.0227 H   0  0  0  0  0  0  0  0  0  0  0  0
   43.9090    0.0052   -0.0382 C   0  0  0  0  0  0  0  0  0  0  0  0
   45.1348   -0.0076   -0.0339 C   0  0  0  0  0  0  0  0  0  0  0  0
   46.4752   -0.0230   -0.0323 C   0  0  0  0  0  0  0  0  0  0  0  0
   47.7072   -0.0331   -0.0272 C   0  0  0  0  0  0  0  0  0  0  0  0
   49.0429   -0.0407   -0.0233 C   0  0  0  0  0  0  0  0  0  0  0  0
   50.2749   -0.0459   -0.0193 C   0  0  0  0  0  0  0  0  0  0  0  0
   51.6152   -0.0481   -0.0179 C   0  0  0  0  0  0  0  0  0  0  0  0
   52.8412   -0.0474   -0.0191 C   0  0  0  0  0  0  0  0  0  0  0  0
   62.4823   -0.0683   -0.0450 C   0  0  0  0  0  0  0  0  0  0  0  0
   63.7092   -0.0775   -0.0470 C   0  0  0  0  0  0  0  0  0  0  0  0
   65.0478   -0.0821   -0.0470 C   0  0  0  0  0  0  0  0  0  0  0  0
   66.2809   -0.0831   -0.0460 C   0  0  0  0  0  0  0  0  0  0  0  0
   67.6148   -0.0826   -0.0428 C   0  0  0  0  0  0  0  0  0  0  0  0
   68.8479   -0.0793   -0.0380 C   0  0  0  0  0  0  0  0  0  0  0  0
   70.1864   -0.0693   -0.0342 C   0  0  0  0  0  0  0  0  0  0  0  0
   71.4133   -0.0589   -0.0278 C   0  0  0  0  0  0  0  0  0  0  0  0
   81.0388   -0.1119    0.0264 C   0  0  0  0  0  0  0  0  0  0  0  0
   82.2653   -0.1299    0.0327 C   0  0  0  0  0  0  0  0  0  0  0  0
   83.6044   -0.1436    0.0374 C   0  0  0  0  0  0  0  0  0  0  0  0
   84.8372   -0.1497    0.0410 C   0  0  0  0  0  0  0  0  0  0  0  0
   86.1718   -0.1501    0.0406 C   0  0  0  0  0  0  0  0  0  0  0  0
   87.4045   -0.1466    0.0356 C   0  0  0  0  0  0  0  0  0  0  0  0
   88.7439   -0.1368    0.0254 C   0  0  0  0  0  0  0  0  0  0  0  0
   89.9702   -0.1232    0.0126 C   0  0  0  0  0  0  0  0  0  0  0  0
   57.6627   -0.0253   -0.0324 Fe  0  0  0  0  0  0  0  0  0  0  0  0
   54.2422   -0.0409   -0.0225 C   0  0  0  0  0  0  0  0  0  0  0  0
   54.9138   -0.0887    1.2047 C   0  0  0  0  0  0  0  0  0  0  0  0
   54.2358   -0.1640    2.4608 C   0  0  0  0  0  0  0  0  0  0  0  0
   55.1937   -0.1429    3.4185 C   0  0  0  0  0  0  0  0  0  0  0  0
   56.4516   -0.0505    2.7413 C   0  0  0  0  0  0  0  0  0  0  0  0
   56.2646   -0.0373    1.3809 N   0  0  0  0  0  0  0  0  0  0  0  0
   57.6728    0.0270    3.3962 C   0  0  0  0  0  0  0  0  0  0  0  0
   58.8899    0.0758    2.7335 C   0  0  0  0  0  0  0  0  0  0  0  0
   60.1532    0.1739    3.4001 C   0  0  0  0  0  0  0  0  0  0  0  0
   61.1056    0.1444    2.4374 C   0  0  0  0  0  0  0  0  0  0  0  0
   59.0695    0.0137    1.3724 N   0  0  0  0  0  0  0  0  0  0  0  0
   60.4189    0.0377    1.1881 C   0  0  0  0  0  0  0  0  0  0  0  0
   61.0833   -0.0543   -0.0417 C   0  0  0  0  0  0  0  0  0  0  0  0
   60.4106   -0.1226   -1.2684 C   0  0  0  0  0  0  0  0  0  0  0  0
   61.0886   -0.2197   -2.5232 C   0  0  0  0  0  0  0  0  0  0  0  0
   60.1313   -0.2040   -3.4815 C   0  0  0  0  0  0  0  0  0  0  0  0
   58.8735   -0.0948   -2.8061 C   0  0  0  0  0  0  0  0  0  0  0  0
   57.6535   -0.0212   -3.4614 C   0  0  0  0  0  0  0  0  0  0  0  0
   57.6503   -0.0108   -4.9503 C   0  0  0  0  0  0  0  0  0  0  0  0
   57.1720   -1.1164   -5.6661 C   0  0  0  0  0  0  0  0  0  0  0  0
   56.7369   -2.1636   -4.9182 O   0  0  0  0  0  0  0  0  0  0  0  0
   56.2335   -3.3289   -5.5400 C   0  0  0  0  0  0  0  0  0  0  0  0
   57.1721   -1.1059   -7.0605 C   0  0  0  0  0  0  0  0  0  0  0  0
   57.6446    0.0115   -7.7321 C   0  0  0  0  0  0  0  0  0  0  0  0
   58.1201    1.1179   -7.0447 C   0  0  0  0  0  0  0  0  0  0  0  0
   58.1263    1.1060   -5.6503 C   0  0  0  0  0  0  0  0  0  0  0  0
   58.5650    2.1409   -4.8876 O   0  0  0  0  0  0  0  0  0  0  0  0
   59.0612    3.3179   -5.4929 C   0  0  0  0  0  0  0  0  0  0  0  0
   56.4356    0.0374   -2.7986 C   0  0  0  0  0  0  0  0  0  0  0  0
   55.1727    0.1259   -3.4670 C   0  0  0  0  0  0  0  0  0  0  0  0
   54.2199    0.1111   -2.5042 C   0  0  0  0  0  0  0  0  0  0  0  0
   54.9061    0.0237   -1.2532 C   0  0  0  0  0  0  0  0  0  0  0  0
   56.2563   -0.0047   -1.4376 N   0  0  0  0  0  0  0  0  0  0  0  0
   59.0611   -0.0651   -1.4452 N   0  0  0  0  0  0  0  0  0  0  0  0
   57.6756    0.0542    4.8850 C   0  0  0  0  0  0  0  0  0  0  0  0
   58.1483   -1.0458    5.6131 C   0  0  0  0  0  0  0  0  0  0  0  0
   58.5791   -2.1032    4.8771 O   0  0  0  0  0  0  0  0  0  0  0  0
   59.0720   -3.2657    5.5123 C   0  0  0  0  0  0  0  0  0  0  0  0
   58.1471   -1.0200    7.0073 C   0  0  0  0  0  0  0  0  0  0  0  0
   57.6794    0.1069    7.6663 C   0  0  0  0  0  0  0  0  0  0  0  0
   57.2095    1.2079    6.9665 C   0  0  0  0  0  0  0  0  0  0  0  0
   57.2042    1.1807    5.5723 C   0  0  0  0  0  0  0  0  0  0  0  0
   56.7707    2.2089    4.7977 O   0  0  0  0  0  0  0  0  0  0  0  0
   56.2759    3.3934    5.3894 C   0  0  0  0  0  0  0  0  0  0  0  0
   53.1657   -0.2242    2.5776 H   0  0  0  0  0  0  0  0  0  0  0  0
   55.0716   -0.1850    4.4885 H   0  0  0  0  0  0  0  0  0  0  0  0
   60.2824    0.2514    4.4673 H   0  0  0  0  0  0  0  0  0  0  0  0
   62.1773    0.1912    2.5465 H   0  0  0  0  0  0  0  0  0  0  0  0
   62.1584   -0.2887   -2.6388 H   0  0  0  0  0  0  0  0  0  0  0  0
   60.2535   -0.2603   -4.5508 H   0  0  0  0  0  0  0  0  0  0  0  0
   55.3494   -3.1083   -6.1503 H   0  0  0  0  0  0  0  0  0  0  0  0
   55.9515   -4.0061   -4.7318 H   0  0  0  0  0  0  0  0  0  0  0  0
   56.9946   -3.8112   -6.1652 H   0  0  0  0  0  0  0  0  0  0  0  0
   56.8089   -1.9556   -7.6229 H   0  0  0  0  0  0  0  0  0  0  0  0
   57.6423    0.0202   -8.8166 H   0  0  0  0  0  0  0  0  0  0  0  0
   58.4810    1.9765   -7.5949 H   0  0  0  0  0  0  0  0  0  0  0  0
   59.3473    3.9819   -4.6752 H   0  0  0  0  0  0  0  0  0  0  0  0
   58.2946    3.8089   -6.1044 H   0  0  0  0  0  0  0  0  0  0  0  0
   59.9416    3.1101   -6.1130 H   0  0  0  0  0  0  0  0  0  0  0  0
   55.0436    0.1872   -4.5352 H   0  0  0  0  0  0  0  0  0  0  0  0
   53.1484    0.1566   -2.6143 H   0  0  0  0  0  0  0  0  0  0  0  0
   58.3053   -3.7362    6.1397 H   0  0  0  0  0  0  0  0  0  0  0  0
   59.3518   -3.9531    4.7119 H   0  0  0  0  0  0  0  0  0  0  0  0
   59.9557   -3.0454    6.1233 H   0  0  0  0  0  0  0  0  0  0  0  0
   58.5059   -1.8652    7.5793 H   0  0  0  0  0  0  0  0  0  0  0  0
   57.6812    0.1275    8.7506 H   0  0  0  0  0  0  0  0  0  0  0  0
   56.8521    2.0741    7.5070 H   0  0  0  0  0  0  0  0  0  0  0  0
   57.0421    3.8887    5.9979 H   0  0  0  0  0  0  0  0  0  0  0  0
   55.3933    3.1942    6.0092 H   0  0  0  0  0  0  0  0  0  0  0  0
   55.9937    4.0496    4.5640 H   0  0  0  0  0  0  0  0  0  0  0  0
   76.2259   -0.0351   -0.0013 Fe  0  0  0  0  0  0  0  0  0  0  0  0
   72.8119   -0.0478   -0.0200 C   0  0  0  0  0  0  0  0  0  0  0  0
   73.4770   -0.1802    1.2062 C   0  0  0  0  0  0  0  0  0  0  0  0
   72.7976   -0.3484    2.4528 C   0  0  0  0  0  0  0  0  0  0  0  0
   73.7478   -0.3137    3.4184 C   0  0  0  0  0  0  0  0  0  0  0  0
   75.0022   -0.1209    2.7560 C   0  0  0  0  0  0  0  0  0  0  0  0
   74.8222   -0.0777    1.3949 N   0  0  0  0  0  0  0  0  0  0  0  0
   76.2085    0.0579    3.4183 C   0  0  0  0  0  0  0  0  0  0  0  0
   77.4227    0.1926    2.7593 C   0  0  0  0  0  0  0  0  0  0  0  0
   78.6732    0.4042    3.4233 C   0  0  0  0  0  0  0  0  0  0  0  0
   79.6345    0.3584    2.4691 C   0  0  0  0  0  0  0  0  0  0  0  0
   77.6161    0.0654    1.4055 N   0  0  0  0  0  0  0  0  0  0  0  0
   78.9654    0.1287    1.2270 C   0  0  0  0  0  0  0  0  0  0  0  0
   79.6397   -0.0870    0.0179 C   0  0  0  0  0  0  0  0  0  0  0  0
   78.9726   -0.2661   -1.2009 C   0  0  0  0  0  0  0  0  0  0  0  0
   79.6488   -0.4893   -2.4404 C   0  0  0  0  0  0  0  0  0  0  0  0
   78.6997   -0.4686   -3.4076 C   0  0  0  0  0  0  0  0  0  0  0  0
   77.4489   -0.2317   -2.7530 C   0  0  0  0  0  0  0  0  0  0  0  0
   76.2456   -0.0544   -3.4224 C   0  0  0  0  0  0  0  0  0  0  0  0
   76.2584   -0.0501   -4.9106 C   0  0  0  0  0  0  0  0  0  0  0  0
   75.6735   -1.1020   -5.6286 C   0  0  0  0  0  0  0  0  0  0  0  0
   75.1234   -2.0954   -4.8832 O   0  0  0  0  0  0  0  0  0  0  0  0
   74.5103   -3.2054   -5.5076 C   0  0  0  0  0  0  0  0  0  0  0  0
   75.6900   -1.0971   -7.0230 C   0  0  0  0  0  0  0  0  0  0  0  0
   76.2853   -0.0387   -7.6925 C   0  0  0  0  0  0  0  0  0  0  0  0
   76.8680    1.0138   -7.0030 C   0  0  0  0  0  0  0  0  0  0  0  0
   76.8580    1.0070   -5.6086 C   0  0  0  0  0  0  0  0  0  0  0  0
   77.3947    1.9933   -4.8446 O   0  0  0  0  0  0  0  0  0  0  0  0
   78.0195    3.1087   -5.4477 C   0  0  0  0  0  0  0  0  0  0  0  0
   75.0324    0.1110   -2.7698 C   0  0  0  0  0  0  0  0  0  0  0  0
   73.7835    0.3087   -3.4414 C   0  0  0  0  0  0  0  0  0  0  0  0
   72.8213    0.2987   -2.4873 C   0  0  0  0  0  0  0  0  0  0  0  0
   73.4883    0.1072   -1.2376 C   0  0  0  0  0  0  0  0  0  0  0  0
   74.8368    0.0288   -1.4123 N   0  0  0  0  0  0  0  0  0  0  0  0
   77.6288   -0.1476   -1.3944 N   0  0  0  0  0  0  0  0  0  0  0  0
   76.2008    0.0977    4.9060 C   0  0  0  0  0  0  0  0  0  0  0  0
   76.7746   -0.9459    5.6448 C   0  0  0  0  0  0  0  0  0  0  0  0
   77.3090   -1.9622    4.9193 O   0  0  0  0  0  0  0  0  0  0  0  0
   77.9072   -3.0681    5.5652 C   0  0  0  0  0  0  0  0  0  0  0  0
   76.7630   -0.9107    7.0388 C   0  0  0  0  0  0  0  0  0  0  0  0
   76.1837    0.1696    7.6870 C   0  0  0  0  0  0  0  0  0  0  0  0
   75.6125    1.2146    6.9767 C   0  0  0  0  0  0  0  0  0  0  0  0
   75.6177    1.1775    5.5827 C   0  0  0  0  0  0  0  0  0  0  0  0
   75.0912    2.1540    4.7990 O   0  0  0  0  0  0  0  0  0  0  0  0
   74.4822    3.2897    5.3797 C   0  0  0  0  0  0  0  0  0  0  0  0
   71.7315   -0.4698    2.5590 H   0  0  0  0  0  0  0  0  0  0  0  0
   73.6220   -0.4040    4.4850 H   0  0  0  0  0  0  0  0  0  0  0  0
   78.7891    0.5583    4.4837 H   0  0  0  0  0  0  0  0  0  0  0  0
   80.7016    0.4646    2.5806 H   0  0  0  0  0  0  0  0  0  0  0  0
   80.7126   -0.6331   -2.5417 H   0  0  0  0  0  0  0  0  0  0  0  0
   78.8240   -0.5963   -4.4706 H   0  0  0  0  0  0  0  0  0  0  0  0
   73.6612   -2.8978   -6.1298 H   0  0  0  0  0  0  0  0  0  0  0  0
   74.1501   -3.8463   -4.7008 H   0  0  0  0  0  0  0  0  0  0  0  0
   75.2254   -3.7663   -6.1215 H   0  0  0  0  0  0  0  0  0  0  0  0
   75.2452   -1.9060   -7.5870 H   0  0  0  0  0  0  0  0  0  0  0  0
   76.2955   -0.0342   -8.7769 H   0  0  0  0  0  0  0  0  0  0  0  0
   77.3238    1.8270   -7.5517 H   0  0  0  0  0  0  0  0  0  0  0  0
   78.3635    3.7429   -4.6287 H   0  0  0  0  0  0  0  0  0  0  0  0
   77.3163    3.6744   -6.0708 H   0  0  0  0  0  0  0  0  0  0  0  0
   78.8807    2.8063   -6.0556 H   0  0  0  0  0  0  0  0  0  0  0  0
   73.6691    0.4289   -4.5064 H   0  0  0  0  0  0  0  0  0  0  0  0
   71.7548    0.4076   -2.6032 H   0  0  0  0  0  0  0  0  0  0  0  0
   77.1860   -3.6043    6.1937 H   0  0  0  0  0  0  0  0  0  0  0  0
   78.2541   -3.7317    4.7711 H   0  0  0  0  0  0  0  0  0  0  0  0
   78.7636   -2.7605    6.1774 H   0  0  0  0  0  0  0  0  0  0  0  0
   77.1992   -1.7129    7.6187 H   0  0  0  0  0  0  0  0  0  0  0  0
   76.1770    0.1976    8.7711 H   0  0  0  0  0  0  0  0  0  0  0  0
   75.1692    2.0454    7.5090 H   0  0  0  0  0  0  0  0  0  0  0  0
   75.1944    3.8604    5.9878 H   0  0  0  0  0  0  0  0  0  0  0  0
   73.6197    3.0111    5.9972 H   0  0  0  0  0  0  0  0  0  0  0  0
   74.1426    3.9100    4.5483 H   0  0  0  0  0  0  0  0  0  0  0  0
  2  3  4  0  0  0  0
  3  4  4  0  0  0  0
  4  5  2  0  0  0  0
  5  6  4  0  0  0  0
  1  7  1  0  0  0  0
  3  7  4  0  0  0  0
  6  7  4  0  0  0  0
  6  8  4  0  0  0  0
  8  9  4  0  0  0  0
  9 10  4  0  0  0  0
 10 11  2  0  0  0  0
  1 12  1  0  0  0  0
  9 12  4  0  0  0  0
 11 13  4  0  0  0  0
 12 13  4  0  0  0  0
 13 14  4  0  0  0  0
 14 15  4  0  0  0  0
 15 16  4  0  0  0  0
 16 17  2  0  0  0  0
 17 18  4  0  0  0  0
 18 19  4  0  0  0  0
 19 20  1  0  0  0  0
 20 21  4  0  0  0  0
 21 22  1  0  0  0  0
 22 23  1  0  0  0  0
 21 24  4  0  0  0  0
 24 25  4  0  0  0  0
 25 26  4  0  0  0  0
 20 27  4  0  0  0  0
 26 27  4  0  0  0  0
 27 28  1  0  0  0  0
 28 29  1  0  0  0  0
 19 30  4  0  0  0  0
 30 31  4  0  0  0  0
 31 32  2  0  0  0  0
  2 33  4  0  0  0  0
 32 33  4  0  0  0  0
  1 34  1  0  0  0  0
 30 34  4  0  0  0  0
 33 34  4  0  0  0  0
  1 35  1  0  0  0  0
 15 35  4  0  0  0  0
 18 35  4  0  0  0  0
  8 36  1  0  0  0  0
 36 37  4  0  0  0  0
 37 38  1  0  0  0  0
 38 39  1  0  0  0  0
 37 40  4  0  0  0  0
 40 41  4  0  0  0  0
 41 42  4  0  0  0  0
 36 43  4  0  0  0  0
 42 43  4  0  0  0  0
 43 44  1  0  0  0  0
 44 45  1  0  0  0  0
  2 46  1  0  0  0  0
  4 47  1  0  0  0  0
  5 48  1  0  0  0  0
 10 49  1  0  0  0  0
 11 50  1  0  0  0  0
 16 51  1  0  0  0  0
 17 52  1  0  0  0  0
 23 53  1  0  0  0  0
 23 54  1  0  0  0  0
 23 55  1  0  0  0  0
 24 56  1  0  0  0  0
 25 57  1  0  0  0  0
 26 58  1  0  0  0  0
 29 59  1  0  0  0  0
 29 60  1  0  0  0  0
 29 61  1  0  0  0  0
 31 62  1  0  0  0  0
 32 63  1  0  0  0  0
 39 64  1  0  0  0  0
 39 65  1  0  0  0  0
 39 66  1  0  0  0  0
 40 67  1  0  0  0  0
 41 68  1  0  0  0  0
 42 69  1  0  0  0  0
 45 70  1  0  0  0  0
 45 71  1  0  0  0  0
 45 72  1  0  0  0  0
 74 75  4  0  0  0  0
 75 76  4  0  0  0  0
 76 77  2  0  0  0  0
 77 78  4  0  0  0  0
 73 79  1  0  0  0  0
 75 79  4  0  0  0  0
 78 79  4  0  0  0  0
 78 80  4  0  0  0  0
 80 81  4  0  0  0  0
 81 82  4  0  0  0  0
 82 83  2  0  0  0  0
 73 84  1  0  0  0  0
 81 84  4  0  0  0  0
 83 85  4  0  0  0  0
 84 85  4  0  0  0  0
 85 86  4  0  0  0  0
 86 87  4  0  0  0  0
 87 88  4  0  0  0  0
 88 89  2  0  0  0  0
 89 90  4  0  0  0  0
 90 91  4  0  0  0  0
 91 92  1  0  0  0  0
 92 93  4  0  0  0  0
 93 94  1  0  0  0  0
 94 95  1  0  0  0  0
 93 96  4  0  0  0  0
 96 97  4  0  0  0  0
 97 98  4  0  0  0  0
 92 99  4  0  0  0  0
 98 99  4  0  0  0  0
 99100  1  0  0  0  0
100101  1  0  0  0  0
 91102  4  0  0  0  0
102103  4  0  0  0  0
103104  2  0  0  0  0
 74105  4  0  0  0  0
104105  4  0  0  0  0
 73106  1  0  0  0  0
102106  4  0  0  0  0
105106  4  0  0  0  0
 73107  1  0  0  0  0
 87107  4  0  0  0  0
 90107  4  0  0  0  0
 80108  1  0  0  0  0
108109  4  0  0  0  0
109110  1  0  0  0  0
110111  1  0  0  0  0
109112  4  0  0  0  0
112113  4  0  0  0  0
113114  4  0  0  0  0
108115  4  0  0  0  0
114115  4  0  0  0  0
115116  1  0  0  0  0
116117  1  0  0  0  0
 74118  1  0  0  0  0
 76119  1  0  0  0  0
 77120  1  0  0  0  0
 82121  1  0  0  0  0
 83122  1  0  0  0  0
 88123  1  0  0  0  0
 89124  1  0  0  0  0
 95125  1  0  0  0  0
 95126  1  0  0  0  0
 95127  1  0  0  0  0
 96128  1  0  0  0  0
 97129  1  0  0  0  0
 98130  1  0  0  0  0
101131  1  0  0  0  0
101132  1  0  0  0  0
101133  1  0  0  0  0
103134  1  0  0  0  0
104135  1  0  0  0  0
111136  1  0  0  0  0
111137  1  0  0  0  0
111138  1  0  0  0  0
112139  1  0  0  0  0
113140  1  0  0  0  0
114141  1  0  0  0  0
117142  1  0  0  0  0
117143  1  0  0  0  0
117144  1  0  0  0  0
 14145  4  0  0  0  0
145146  3  0  0  0  0
146147  4  0  0  0  0
147148  3  0  0  0  0
148149  4  0  0  0  0
149150  3  0  0  0  0
150151  4  0  0  0  0
151152  3  0  0  0  0
153154  3  0  0  0  0
154155  4  0  0  0  0
155156  3  0  0  0  0
156157  4  0  0  0  0
157158  3  0  0  0  0
158159  4  0  0  0  0
159160  3  0  0  0  0
161162  3  0  0  0  0
162163  4  0  0  0  0
163164  3  0  0  0  0
164165  4  0  0  0  0
165166  3  0  0  0  0
166167  4  0  0  0  0
 86168  4  0  0  0  0
167168  3  0  0  0  0
152170  4  0  0  0  0
170171  4  0  0  0  0
171172  4  0  0  0  0
172173  2  0  0  0  0
173174  4  0  0  0  0
169175  1  0  0  0  0
171175  4  0  0  0  0
174175  4  0  0  0  0
174176  4  0  0  0  0
176177  4  0  0  0  0
177178  4  0  0  0  0
178179  2  0  0  0  0
169180  1  0  0  0  0
177180  4  0  0  0  0
179181  4  0  0  0  0
180181  4  0  0  0  0
153182  4  0  0  0  0
181182  4  0  0  0  0
182183  4  0  0  0  0
183184  4  0  0  0  0
184185  2  0  0  0  0
185186  4  0  0  0  0
186187  4  0  0  0  0
187188  1  0  0  0  0
188189  4  0  0  0  0
189190  1  0  0  0  0
190191  1  0  0  0  0
189192  4  0  0  0  0
192193  4  0  0  0  0
193194  4  0  0  0  0
188195  4  0  0  0  0
194195  4  0  0  0  0
195196  1  0  0  0  0
196197  1  0  0  0  0
187198  4  0  0  0  0
198199  4  0  0  0  0
199200  2  0  0  0  0
170201  4  0  0  0  0
200201  4  0  0  0  0
169202  1  0  0  0  0
198202  4  0  0  0  0
201202  4  0  0  0  0
169203  1  0  0  0  0
183203  4  0  0  0  0
186203  4  0  0  0  0
176204  1  0  0  0  0
204205  4  0  0  0  0
205206  1  0  0  0  0
206207  1  0  0  0  0
205208  4  0  0  0  0
208209  4  0  0  0  0
209210  4  0  0  0  0
204211  4  0  0  0  0
210211  4  0  0  0  0
211212  1  0  0  0  0
212213  1  0  0  0  0
172214  1  0  0  0  0
173215  1  0  0  0  0
178216  1  0  0  0  0
179217  1  0  0  0  0
184218  1  0  0  0  0
185219  1  0  0  0  0
191220  1  0  0  0  0
191221  1  0  0  0  0
191222  1  0  0  0  0
192223  1  0  0  0  0
193224  1  0  0  0  0
194225  1  0  0  0  0
197226  1  0  0  0  0
197227  1  0  0  0  0
197228  1  0  0  0  0
199229  1  0  0  0  0
200230  1  0  0  0  0
207231  1  0  0  0  0
207232  1  0  0  0  0
207233  1  0  0  0  0
208234  1  0  0  0  0
209235  1  0  0  0  0
210236  1  0  0  0  0
213237  1  0  0  0  0
213238  1  0  0  0  0
213239  1  0  0  0  0
160241  4  0  0  0  0
241242  4  0  0  0  0
242243  4  0  0  0  0
243244  2  0  0  0  0
244245  4  0  0  0  0
240246  1  0  0  0  0
242246  4  0  0  0  0
245246  4  0  0  0  0
245247  4  0  0  0  0
247248  4  0  0  0  0
248249  4  0  0  0  0
249250  2  0  0  0  0
240251  1  0  0  0  0
248251  4  0  0  0  0
250252  4  0  0  0  0
251252  4  0  0  0  0
161253  4  0  0  0  0
252253  4  0  0  0  0
253254  4  0  0  0  0
254255  4  0  0  0  0
255256  2  0  0  0  0
256257  4  0  0  0  0
257258  4  0  0  0  0
258259  1  0  0  0  0
259260  4  0  0  0  0
260261  1  0  0  0  0
261262  1  0  0  0  0
260263  4  0  0  0  0
263264  4  0  0  0  0
264265  4  0  0  0  0
259266  4  0  0  0  0
265266  4  0  0  0  0
266267  1  0  0  0  0
267268  1  0  0  0  0
258269  4  0  0  0  0
269270  4  0  0  0  0
270271  2  0  0  0  0
241272  4  0  0  0  0
271272  4  0  0  0  0
240273  1  0  0  0  0
269273  4  0  0  0  0
272273  4  0  0  0  0
240274  1  0  0  0  0
254274  4  0  0  0  0
257274  4  0  0  0  0
247275  1  0  0  0  0
275276  4  0  0  0  0
276277  1  0  0  0  0
277278  1  0  0  0  0
276279  4  0  0  0  0
279280  4  0  0  0  0
280281  4  0  0  0  0
275282  4  0  0  0  0
281282  4  0  0  0  0
282283  1  0  0  0  0
283284  1  0  0  0  0
243285  1  0  0  0  0
244286  1  0  0  0  0
249287  1  0  0  0  0
250288  1  0  0  0  0
255289  1  0  0  0  0
256290  1  0  0  0  0
262291  1  0  0  0  0
262292  1  0  0  0  0
262293  1  0  0  0  0
263294  1  0  0  0  0
264295  1  0  0  0  0
265296  1  0  0  0  0
268297  1  0  0  0  0
268298  1  0  0  0  0
268299  1  0  0  0  0
270300  1  0  0  0  0
271301  1  0  0  0  0
278302  1  0  0  0  0
278303  1  0  0  0  0
278304  1  0  0  0  0
279305  1  0  0  0  0
280306  1  0  0  0  0
281307  1  0  0  0  0
284308  1  0  0  0  0
284309  1  0  0  0  0
284310  1  0  0  0  0
M  END
