 xtb: 6.5.1 (b24c23e)
          07312216573D

206226  0     0  0            999 V2000
   26.9524   -0.0473    0.1257 C   0  0  0  0  0  0  0  0  0  0  0  0
   27.5473   -1.2584   -0.2022 C   0  0  0  0  0  0  0  0  0  0  0  0
   26.8822   -2.4874   -0.4733 C   0  0  0  0  0  0  0  0  0  0  0  0
   27.8319   -3.4246   -0.7662 C   0  0  0  0  0  0  0  0  0  0  0  0
   29.1084   -2.7961   -0.6904 C   0  0  0  0  0  0  0  0  0  0  0  0
   28.8862   -1.4955   -0.3389 N   0  0  0  0  0  0  0  0  0  0  0  0
   30.3636   -3.3790   -0.8974 C   0  0  0  0  0  0  0  0  0  0  0  0
   30.3725   -4.8053   -1.3035 C   0  0  0  0  0  0  0  0  0  0  0  0
   29.7628   -5.1979   -2.4980 C   0  0  0  0  0  0  0  0  0  0  0  0
   29.7688   -6.5269   -2.8877 C   0  0  0  0  0  0  0  0  0  0  0  0
   30.3856   -7.4575   -2.0673 C   0  0  0  0  0  0  0  0  0  0  0  0
   30.4036   -9.1404   -2.5587 S   0  0  0  0  0  0  0  0  0  0  0  0
   30.2320   -9.2645   -3.9769 O   0  0  0  0  0  0  0  0  0  0  0  0
   29.0187   -9.6107   -1.8514 O   0  0  0  0  0  0  0  0  0  0  0  0
   31.4919   -9.8340   -1.9370 O   0  0  0  0  0  0  0  0  0  0  0  0
   30.9990   -7.0993   -0.8779 C   0  0  0  0  0  0  0  0  0  0  0  0
   30.9903   -5.7667   -0.4998 C   0  0  0  0  0  0  0  0  0  0  0  0
   31.5895   -2.7232   -0.7557 C   0  0  0  0  0  0  0  0  0  0  0  0
   32.8772   -3.3412   -1.0191 C   0  0  0  0  0  0  0  0  0  0  0  0
   33.8103   -2.3990   -0.7727 C   0  0  0  0  0  0  0  0  0  0  0  0
   31.7609   -1.4269   -0.3800 N   0  0  0  0  0  0  0  0  0  0  0  0
   33.0913   -1.2041   -0.3740 C   0  0  0  0  0  0  0  0  0  0  0  0
   33.7427    0.0003   -0.0437 C   0  0  0  0  0  0  0  0  0  0  0  0
   33.1226    1.2173    0.2944 C   0  0  0  0  0  0  0  0  0  0  0  0
   33.7824    2.4300    0.6287 C   0  0  0  0  0  0  0  0  0  0  0  0
   32.8270    3.3749    0.8798 C   0  0  0  0  0  0  0  0  0  0  0  0
   31.5527    2.7678    0.7008 C   0  0  0  0  0  0  0  0  0  0  0  0
   31.7832    1.4636    0.3538 N   0  0  0  0  0  0  0  0  0  0  0  0
   30.2975    3.3591    0.8787 C   0  0  0  0  0  0  0  0  0  0  0  0
   30.2865    4.7979    1.2372 C   0  0  0  0  0  0  0  0  0  0  0  0
   30.8186    5.7453    0.3585 C   0  0  0  0  0  0  0  0  0  0  0  0
   30.8103    7.0909    0.6860 C   0  0  0  0  0  0  0  0  0  0  0  0
   30.2727    7.4757    1.9037 C   0  0  0  0  0  0  0  0  0  0  0  0
   30.2587    9.1783    2.3209 S   0  0  0  0  0  0  0  0  0  0  0  0
   30.2260    9.9950    1.1430 O   0  0  0  0  0  0  0  0  0  0  0  0
   31.7518    9.2779    2.9538 O   0  0  0  0  0  0  0  0  0  0  0  0
   29.3067    9.4374    3.3600 O   0  0  0  0  0  0  0  0  0  0  0  0
   29.7371    6.5605    2.7951 C   0  0  0  0  0  0  0  0  0  0  0  0
   29.7439    5.2179    2.4541 C   0  0  0  0  0  0  0  0  0  0  0  0
   29.0717    2.6992    0.7456 C   0  0  0  0  0  0  0  0  0  0  0  0
   27.7744    3.3407    0.8964 C   0  0  0  0  0  0  0  0  0  0  0  0
   26.8490    2.3829    0.6893 C   0  0  0  0  0  0  0  0  0  0  0  0
   27.5794    1.1609    0.3998 C   0  0  0  0  0  0  0  0  0  0  0  0
   28.9149    1.3906    0.4364 N   0  0  0  0  0  0  0  0  0  0  0  0
   25.8678   -0.0534    0.1634 H   0  0  0  0  0  0  0  0  0  0  0  0
   25.8132   -2.6243   -0.4402 H   0  0  0  0  0  0  0  0  0  0  0  0
   27.6695   -4.4633   -1.0043 H   0  0  0  0  0  0  0  0  0  0  0  0
   29.6184   -0.8077   -0.1980 H   0  0  0  0  0  0  0  0  0  0  0  0
   29.2983   -4.4523   -3.1327 H   0  0  0  0  0  0  0  0  0  0  0  0
   29.3097   -6.8397   -3.8172 H   0  0  0  0  0  0  0  0  0  0  0  0
   28.7612  -10.4836   -2.1722 H   0  0  0  0  0  0  0  0  0  0  0  0
   31.4761   -7.8524   -0.2633 H   0  0  0  0  0  0  0  0  0  0  0  0
   31.4542   -5.4675    0.4327 H   0  0  0  0  0  0  0  0  0  0  0  0
   33.0255   -4.3535   -1.3584 H   0  0  0  0  0  0  0  0  0  0  0  0
   34.8825   -2.4755   -0.8558 H   0  0  0  0  0  0  0  0  0  0  0  0
   34.8524    2.5527    0.6730 H   0  0  0  0  0  0  0  0  0  0  0  0
   32.9871    4.3994    1.1739 H   0  0  0  0  0  0  0  0  0  0  0  0
   31.0525    0.7820    0.1771 H   0  0  0  0  0  0  0  0  0  0  0  0
   31.2239    5.4243   -0.5940 H   0  0  0  0  0  0  0  0  0  0  0  0
   31.2080    7.8348    0.0071 H   0  0  0  0  0  0  0  0  0  0  0  0
   31.9699   10.1976    3.1482 H   0  0  0  0  0  0  0  0  0  0  0  0
   29.3212    6.8968    3.7365 H   0  0  0  0  0  0  0  0  0  0  0  0
   29.3395    4.4844    3.1417 H   0  0  0  0  0  0  0  0  0  0  0  0
   27.6186    4.3842    1.1179 H   0  0  0  0  0  0  0  0  0  0  0  0
   25.7739    2.4659    0.7133 H   0  0  0  0  0  0  0  0  0  0  0  0
   65.7496   -0.0042    0.1293 C   0  0  0  0  0  0  0  0  0  0  0  0
   65.1489    1.1925    0.4971 C   0  0  0  0  0  0  0  0  0  0  0  0
   65.8083    2.3836    0.9127 C   0  0  0  0  0  0  0  0  0  0  0  0
   64.8535    3.3271    1.1662 C   0  0  0  0  0  0  0  0  0  0  0  0
   63.5795    2.7448    0.9057 C   0  0  0  0  0  0  0  0  0  0  0  0
   63.8083    1.4564    0.5153 N   0  0  0  0  0  0  0  0  0  0  0  0
   62.3208    3.3409    1.0418 C   0  0  0  0  0  0  0  0  0  0  0  0
   62.3028    4.7661    1.4512 C   0  0  0  0  0  0  0  0  0  0  0  0
   62.9046    5.7361    0.6453 C   0  0  0  0  0  0  0  0  0  0  0  0
   62.8880    7.0699    1.0181 C   0  0  0  0  0  0  0  0  0  0  0  0
   62.2688    7.4205    2.2068 C   0  0  0  0  0  0  0  0  0  0  0  0
   62.2370    9.1083    2.6805 S   0  0  0  0  0  0  0  0  0  0  0  0
   62.3970    9.9660    1.5426 O   0  0  0  0  0  0  0  0  0  0  0  0
   63.6249    9.1467    3.5243 O   0  0  0  0  0  0  0  0  0  0  0  0
   61.1493    9.3571    3.5788 O   0  0  0  0  0  0  0  0  0  0  0  0
   61.6631    6.4823    3.0268 C   0  0  0  0  0  0  0  0  0  0  0  0
   61.6823    5.1517    2.6422 C   0  0  0  0  0  0  0  0  0  0  0  0
   61.0984    2.7015    0.8191 C   0  0  0  0  0  0  0  0  0  0  0  0
   59.8075    3.3598    0.9184 C   0  0  0  0  0  0  0  0  0  0  0  0
   58.8788    2.4233    0.6363 C   0  0  0  0  0  0  0  0  0  0  0  0
   60.9331    1.3992    0.4618 N   0  0  0  0  0  0  0  0  0  0  0  0
   59.6035    1.1993    0.3529 C   0  0  0  0  0  0  0  0  0  0  0  0
   58.9573   -0.0068    0.0173 C   0  0  0  0  0  0  0  0  0  0  0  0
   59.5831   -1.2193   -0.3255 C   0  0  0  0  0  0  0  0  0  0  0  0
   58.9296   -2.4342   -0.6640 C   0  0  0  0  0  0  0  0  0  0  0  0
   59.8897   -3.3629   -0.9551 C   0  0  0  0  0  0  0  0  0  0  0  0
   61.1606   -2.7401   -0.8081 C   0  0  0  0  0  0  0  0  0  0  0  0
   60.9236   -1.4490   -0.4189 N   0  0  0  0  0  0  0  0  0  0  0  0
   62.4189   -3.3245   -0.9863 C   0  0  0  0  0  0  0  0  0  0  0  0
   62.4379   -4.7351   -1.4431 C   0  0  0  0  0  0  0  0  0  0  0  0
   61.8897   -5.0793   -2.6815 C   0  0  0  0  0  0  0  0  0  0  0  0
   61.9098   -6.3932   -3.1188 C   0  0  0  0  0  0  0  0  0  0  0  0
   62.4751   -7.3579   -2.3003 C   0  0  0  0  0  0  0  0  0  0  0  0
   62.5077   -9.0212   -2.8532 S   0  0  0  0  0  0  0  0  0  0  0  0
   62.5213   -9.0849   -4.2853 O   0  0  0  0  0  0  0  0  0  0  0  0
   61.0289   -9.4664   -2.3485 O   0  0  0  0  0  0  0  0  0  0  0  0
   63.4823   -9.7785   -2.1253 O   0  0  0  0  0  0  0  0  0  0  0  0
   63.0257   -7.0480   -1.0675 C   0  0  0  0  0  0  0  0  0  0  0  0
   63.0068   -5.7293   -0.6434 C   0  0  0  0  0  0  0  0  0  0  0  0
   63.6421   -2.6817   -0.7698 C   0  0  0  0  0  0  0  0  0  0  0  0
   64.9422   -3.2942   -0.9985 C   0  0  0  0  0  0  0  0  0  0  0  0
   65.8634   -2.3634   -0.6800 C   0  0  0  0  0  0  0  0  0  0  0  0
   65.1277   -1.1796   -0.2703 C   0  0  0  0  0  0  0  0  0  0  0  0
   63.7931   -1.4058   -0.3436 N   0  0  0  0  0  0  0  0  0  0  0  0
   66.8346   -0.0106    0.1539 H   0  0  0  0  0  0  0  0  0  0  0  0
   66.8772    2.4899    1.0062 H   0  0  0  0  0  0  0  0  0  0  0  0
   65.0109    4.3356    1.5126 H   0  0  0  0  0  0  0  0  0  0  0  0
   63.0792    0.7930    0.2757 H   0  0  0  0  0  0  0  0  0  0  0  0
   63.3707    5.4431   -0.2882 H   0  0  0  0  0  0  0  0  0  0  0  0
   63.3405    7.8309    0.3946 H   0  0  0  0  0  0  0  0  0  0  0  0
   63.8826   10.0602    3.6981 H   0  0  0  0  0  0  0  0  0  0  0  0
   61.1838    6.7921    3.9468 H   0  0  0  0  0  0  0  0  0  0  0  0
   61.2244    4.4006    3.2750 H   0  0  0  0  0  0  0  0  0  0  0  0
   59.6544    4.3996    1.1578 H   0  0  0  0  0  0  0  0  0  0  0  0
   57.8062    2.5274    0.6060 H   0  0  0  0  0  0  0  0  0  0  0  0
   57.8604   -2.5711   -0.6767 H   0  0  0  0  0  0  0  0  0  0  0  0
   59.7353   -4.3916   -1.2369 H   0  0  0  0  0  0  0  0  0  0  0  0
   61.6506   -0.7683   -0.2247 H   0  0  0  0  0  0  0  0  0  0  0  0
   61.4631   -4.3076   -3.3117 H   0  0  0  0  0  0  0  0  0  0  0  0
   61.5003   -6.6689   -4.0825 H   0  0  0  0  0  0  0  0  0  0  0  0
   60.8276  -10.3587   -2.6559 H   0  0  0  0  0  0  0  0  0  0  0  0
   63.4630   -7.8266   -0.4553 H   0  0  0  0  0  0  0  0  0  0  0  0
   63.4231   -5.4670    0.3221 H   0  0  0  0  0  0  0  0  0  0  0  0
   65.1024   -4.2955   -1.3644 H   0  0  0  0  0  0  0  0  0  0  0  0
   66.9389   -2.4368   -0.7177 H   0  0  0  0  0  0  0  0  0  0  0  0
   38.9462    0.0574   -0.0306 C   0  0  0  0  0  0  0  0  0  0  0  0
   37.7187    0.0380   -0.0428 C   0  0  0  0  0  0  0  0  0  0  0  0
   36.3734    0.0211   -0.0502 C   0  0  0  0  0  0  0  0  0  0  0  0
   35.1502    0.0054   -0.0530 C   0  0  0  0  0  0  0  0  0  0  0  0
   40.2913    0.0780   -0.0149 C   0  0  0  0  0  0  0  0  0  0  0  0
   41.5145    0.0960    0.0044 C   0  0  0  0  0  0  0  0  0  0  0  0
   54.9812   -0.0037    0.0274 C   0  0  0  0  0  0  0  0  0  0  0  0
   53.7535    0.0061    0.0270 C   0  0  0  0  0  0  0  0  0  0  0  0
   52.4083    0.0193    0.0341 C   0  0  0  0  0  0  0  0  0  0  0  0
   51.1850    0.0377    0.0397 C   0  0  0  0  0  0  0  0  0  0  0  0
   56.3265   -0.0132    0.0169 C   0  0  0  0  0  0  0  0  0  0  0  0
   57.5499   -0.0110    0.0130 C   0  0  0  0  0  0  0  0  0  0  0  0
   42.9208    0.1098    0.0226 C   0  0  0  0  0  0  0  0  0  0  0  0
   43.5537    0.8043   -1.0250 C   0  0  0  0  0  0  0  0  0  0  0  0
   42.9115    1.4744   -2.0988 C   0  0  0  0  0  0  0  0  0  0  0  0
   43.8804    2.0342   -2.8851 C   0  0  0  0  0  0  0  0  0  0  0  0
   45.1438    1.7272   -2.3090 C   0  0  0  0  0  0  0  0  0  0  0  0
   44.8957    0.9754   -1.1925 N   0  0  0  0  0  0  0  0  0  0  0  0
   46.4070    2.0907   -2.7908 C   0  0  0  0  0  0  0  0  0  0  0  0
   46.4272    2.9394   -4.0075 C   0  0  0  0  0  0  0  0  0  0  0  0
   47.0271    2.4744   -5.1805 C   0  0  0  0  0  0  0  0  0  0  0  0
   47.0442    3.2602   -6.3210 C   0  0  0  0  0  0  0  0  0  0  0  0
   46.4579    4.5146   -6.2732 C   0  0  0  0  0  0  0  0  0  0  0  0
   46.4827    5.5177   -7.7110 S   0  0  0  0  0  0  0  0  0  0  0  0
   46.3421    6.9038   -7.3731 O   0  0  0  0  0  0  0  0  0  0  0  0
   45.0824    5.0212   -8.3683 O   0  0  0  0  0  0  0  0  0  0  0  0
   47.5544    5.1295   -8.5789 O   0  0  0  0  0  0  0  0  0  0  0  0
   45.8619    5.0062   -5.1233 C   0  0  0  0  0  0  0  0  0  0  0  0
   45.8467    4.2102   -3.9899 C   0  0  0  0  0  0  0  0  0  0  0  0
   47.6302    1.7205   -2.2281 C   0  0  0  0  0  0  0  0  0  0  0  0
   48.9198    2.1621   -2.7298 C   0  0  0  0  0  0  0  0  0  0  0  0
   49.8522    1.5925   -1.9391 C   0  0  0  0  0  0  0  0  0  0  0  0
   47.7995    0.9197   -1.1414 N   0  0  0  0  0  0  0  0  0  0  0  0
   49.1309    0.8151   -0.9503 C   0  0  0  0  0  0  0  0  0  0  0  0
   49.7786    0.0621    0.0482 C   0  0  0  0  0  0  0  0  0  0  0  0
   49.1455   -0.6717    1.0686 C   0  0  0  0  0  0  0  0  0  0  0  0
   49.7869   -1.4399    2.0751 C   0  0  0  0  0  0  0  0  0  0  0  0
   48.8180   -1.9655    2.8848 C   0  0  0  0  0  0  0  0  0  0  0  0
   47.5556   -1.5273    2.3985 C   0  0  0  0  0  0  0  0  0  0  0  0
   47.8038   -0.7577    1.2943 N   0  0  0  0  0  0  0  0  0  0  0  0
   46.2929   -1.8338    2.9196 C   0  0  0  0  0  0  0  0  0  0  0  0
   46.2718   -2.6535    4.1562 C   0  0  0  0  0  0  0  0  0  0  0  0
   45.6675   -3.9132    4.1580 C   0  0  0  0  0  0  0  0  0  0  0  0
   45.6457   -4.6809    5.3106 C   0  0  0  0  0  0  0  0  0  0  0  0
   46.2283   -4.1720    6.4599 C   0  0  0  0  0  0  0  0  0  0  0  0
   46.2102   -5.1412    7.9208 S   0  0  0  0  0  0  0  0  0  0  0  0
   46.0823   -6.5322    7.6023 O   0  0  0  0  0  0  0  0  0  0  0  0
   44.7980   -4.6216    8.5320 O   0  0  0  0  0  0  0  0  0  0  0  0
   47.2536   -4.7372    8.8173 O   0  0  0  0  0  0  0  0  0  0  0  0
   46.8369   -2.9278    6.4889 C   0  0  0  0  0  0  0  0  0  0  0  0
   46.8582   -2.1711    5.3290 C   0  0  0  0  0  0  0  0  0  0  0  0
   45.0698   -1.4349    2.3772 C   0  0  0  0  0  0  0  0  0  0  0  0
   43.7807   -1.7377    2.9742 C   0  0  0  0  0  0  0  0  0  0  0  0
   42.8480   -1.2014    2.1609 C   0  0  0  0  0  0  0  0  0  0  0  0
   43.5688   -0.5608    1.0781 C   0  0  0  0  0  0  0  0  0  0  0  0
   44.8999   -0.7079    1.2398 N   0  0  0  0  0  0  0  0  0  0  0  0
   41.8443    1.5141   -2.2453 H   0  0  0  0  0  0  0  0  0  0  0  0
   43.7352    2.6008   -3.7903 H   0  0  0  0  0  0  0  0  0  0  0  0
   45.6133    0.5954   -0.5842 H   0  0  0  0  0  0  0  0  0  0  0  0
   47.4698    1.4854   -5.1998 H   0  0  0  0  0  0  0  0  0  0  0  0
   47.5066    2.9099   -7.2353 H   0  0  0  0  0  0  0  0  0  0  0  0
   44.8558    5.5734   -9.1265 H   0  0  0  0  0  0  0  0  0  0  0  0
   45.4248    5.9968   -5.1173 H   0  0  0  0  0  0  0  0  0  0  0  0
   45.3971    4.5814   -3.0763 H   0  0  0  0  0  0  0  0  0  0  0  0
   49.0695    2.8279   -3.5641 H   0  0  0  0  0  0  0  0  0  0  0  0
   50.9254    1.6808   -1.9924 H   0  0  0  0  0  0  0  0  0  0  0  0
   50.8536   -1.5709    2.1591 H   0  0  0  0  0  0  0  0  0  0  0  0
   48.9624   -2.6085    3.7376 H   0  0  0  0  0  0  0  0  0  0  0  0
   47.0868   -0.3186    0.7266 H   0  0  0  0  0  0  0  0  0  0  0  0
   45.2273   -4.2971    3.2452 H   0  0  0  0  0  0  0  0  0  0  0  0
   45.1896   -5.6629    5.3206 H   0  0  0  0  0  0  0  0  0  0  0  0
   44.6714   -4.9698    9.4230 H   0  0  0  0  0  0  0  0  0  0  0  0
   47.2875   -2.5631    7.4035 H   0  0  0  0  0  0  0  0  0  0  0  0
   47.3193   -1.1903    5.3334 H   0  0  0  0  0  0  0  0  0  0  0  0
   43.6315   -2.2762    3.8960 H   0  0  0  0  0  0  0  0  0  0  0  0
   41.7751   -1.2142    2.2661 H   0  0  0  0  0  0  0  0  0  0  0  0
  1  2  4  0  0  0  0
  2  3  4  0  0  0  0
  3  4  2  0  0  0  0
  4  5  4  0  0  0  0
  2  6  4  0  0  0  0
  5  6  4  0  0  0  0
  5  7  4  0  0  0  0
  7  8  1  0  0  0  0
  8  9  4  0  0  0  0
  9 10  4  0  0  0  0
 10 11  4  0  0  0  0
 11 12  1  0  0  0  0
 12 13  2  0  0  0  0
 12 14  1  0  0  0  0
 12 15  2  0  0  0  0
 11 16  4  0  0  0  0
  8 17  4  0  0  0  0
 16 17  4  0  0  0  0
  7 18  4  0  0  0  0
 18 19  1  0  0  0  0
 19 20  2  0  0  0  0
 18 21  4  0  0  0  0
 20 22  1  0  0  0  0
 21 22  4  0  0  0  0
 22 23  4  0  0  0  0
 23 24  4  0  0  0  0
 24 25  4  0  0  0  0
 25 26  2  0  0  0  0
 26 27  4  0  0  0  0
 24 28  4  0  0  0  0
 27 28  4  0  0  0  0
 27 29  4  0  0  0  0
 29 30  1  0  0  0  0
 30 31  4  0  0  0  0
 31 32  4  0  0  0  0
 32 33  4  0  0  0  0
 33 34  1  0  0  0  0
 34 35  2  0  0  0  0
 34 36  1  0  0  0  0
 34 37  2  0  0  0  0
 33 38  4  0  0  0  0
 30 39  4  0  0  0  0
 38 39  4  0  0  0  0
 29 40  4  0  0  0  0
 40 41  1  0  0  0  0
 41 42  2  0  0  0  0
  1 43  4  0  0  0  0
 42 43  1  0  0  0  0
 40 44  4  0  0  0  0
 43 44  4  0  0  0  0
  1 45  1  0  0  0  0
  3 46  1  0  0  0  0
  4 47  1  0  0  0  0
  6 48  1  0  0  0  0
  9 49  1  0  0  0  0
 10 50  1  0  0  0  0
 14 51  1  0  0  0  0
 16 52  1  0  0  0  0
 17 53  1  0  0  0  0
 19 54  1  0  0  0  0
 20 55  1  0  0  0  0
 25 56  1  0  0  0  0
 26 57  1  0  0  0  0
 28 58  1  0  0  0  0
 31 59  1  0  0  0  0
 32 60  1  0  0  0  0
 36 61  1  0  0  0  0
 38 62  1  0  0  0  0
 39 63  1  0  0  0  0
 41 64  1  0  0  0  0
 42 65  1  0  0  0  0
 66 67  4  0  0  0  0
 67 68  4  0  0  0  0
 68 69  2  0  0  0  0
 69 70  4  0  0  0  0
 67 71  4  0  0  0  0
 70 71  4  0  0  0  0
 70 72  4  0  0  0  0
 72 73  1  0  0  0  0
 73 74  4  0  0  0  0
 74 75  4  0  0  0  0
 75 76  4  0  0  0  0
 76 77  1  0  0  0  0
 77 78  2  0  0  0  0
 77 79  1  0  0  0  0
 77 80  2  0  0  0  0
 76 81  4  0  0  0  0
 73 82  4  0  0  0  0
 81 82  4  0  0  0  0
 72 83  4  0  0  0  0
 83 84  1  0  0  0  0
 84 85  2  0  0  0  0
 83 86  4  0  0  0  0
 85 87  1  0  0  0  0
 86 87  4  0  0  0  0
 87 88  4  0  0  0  0
 88 89  4  0  0  0  0
 89 90  4  0  0  0  0
 90 91  2  0  0  0  0
 91 92  4  0  0  0  0
 89 93  4  0  0  0  0
 92 93  4  0  0  0  0
 92 94  4  0  0  0  0
 94 95  1  0  0  0  0
 95 96  4  0  0  0  0
 96 97  4  0  0  0  0
 97 98  4  0  0  0  0
 98 99  1  0  0  0  0
 99100  2  0  0  0  0
 99101  1  0  0  0  0
 99102  2  0  0  0  0
 98103  4  0  0  0  0
 95104  4  0  0  0  0
103104  4  0  0  0  0
 94105  4  0  0  0  0
105106  1  0  0  0  0
106107  2  0  0  0  0
 66108  4  0  0  0  0
107108  1  0  0  0  0
105109  4  0  0  0  0
108109  4  0  0  0  0
 66110  1  0  0  0  0
 68111  1  0  0  0  0
 69112  1  0  0  0  0
 71113  1  0  0  0  0
 74114  1  0  0  0  0
 75115  1  0  0  0  0
 79116  1  0  0  0  0
 81117  1  0  0  0  0
 82118  1  0  0  0  0
 84119  1  0  0  0  0
 85120  1  0  0  0  0
 90121  1  0  0  0  0
 91122  1  0  0  0  0
 93123  1  0  0  0  0
 96124  1  0  0  0  0
 97125  1  0  0  0  0
101126  1  0  0  0  0
103127  1  0  0  0  0
104128  1  0  0  0  0
106129  1  0  0  0  0
107130  1  0  0  0  0
131132  3  0  0  0  0
132133  4  0  0  0  0
 23134  4  0  0  0  0
133134  3  0  0  0  0
131135  4  0  0  0  0
135136  3  0  0  0  0
137138  3  0  0  0  0
138139  4  0  0  0  0
139140  3  0  0  0  0
137141  4  0  0  0  0
 88142  4  0  0  0  0
141142  3  0  0  0  0
136143  4  0  0  0  0
143144  4  0  0  0  0
144145  4  0  0  0  0
145146  2  0  0  0  0
146147  4  0  0  0  0
144148  4  0  0  0  0
147148  4  0  0  0  0
147149  4  0  0  0  0
149150  1  0  0  0  0
150151  4  0  0  0  0
151152  4  0  0  0  0
152153  4  0  0  0  0
153154  1  0  0  0  0
154155  2  0  0  0  0
154156  1  0  0  0  0
154157  2  0  0  0  0
153158  4  0  0  0  0
150159  4  0  0  0  0
158159  4  0  0  0  0
149160  4  0  0  0  0
160161  1  0  0  0  0
161162  2  0  0  0  0
160163  4  0  0  0  0
162164  1  0  0  0  0
163164  4  0  0  0  0
140165  4  0  0  0  0
164165  4  0  0  0  0
165166  4  0  0  0  0
166167  4  0  0  0  0
167168  2  0  0  0  0
168169  4  0  0  0  0
166170  4  0  0  0  0
169170  4  0  0  0  0
169171  4  0  0  0  0
171172  1  0  0  0  0
172173  4  0  0  0  0
173174  4  0  0  0  0
174175  4  0  0  0  0
175176  1  0  0  0  0
176177  2  0  0  0  0
176178  1  0  0  0  0
176179  2  0  0  0  0
175180  4  0  0  0  0
172181  4  0  0  0  0
180181  4  0  0  0  0
171182  4  0  0  0  0
182183  1  0  0  0  0
183184  2  0  0  0  0
143185  4  0  0  0  0
184185  1  0  0  0  0
182186  4  0  0  0  0
185186  4  0  0  0  0
145187  1  0  0  0  0
146188  1  0  0  0  0
148189  1  0  0  0  0
151190  1  0  0  0  0
152191  1  0  0  0  0
156192  1  0  0  0  0
158193  1  0  0  0  0
159194  1  0  0  0  0
161195  1  0  0  0  0
162196  1  0  0  0  0
167197  1  0  0  0  0
168198  1  0  0  0  0
170199  1  0  0  0  0
173200  1  0  0  0  0
174201  1  0  0  0  0
178202  1  0  0  0  0
180203  1  0  0  0  0
181204  1  0  0  0  0
183205  1  0  0  0  0
184206  1  0  0  0  0
M  END
