 xtb: 6.5.1 (b24c23e)
          07302202353D

134153  0     0  0            999 V2000
   18.9041    0.0333    0.0091 Ni  0  0  0  0  0  0  0  0  0  0  0  0
   15.5211    0.1149   -0.0696 C   0  0  0  0  0  0  0  0  0  0  0  0
   16.1688    0.8858    0.8746 C   0  0  0  0  0  0  0  0  0  0  0  0
   15.4970    1.6785    1.8577 C   0  0  0  0  0  0  0  0  0  0  0  0
   16.4526    2.3889    2.5038 C   0  0  0  0  0  0  0  0  0  0  0  0
   17.7067    2.0432    1.9023 C   0  0  0  0  0  0  0  0  0  0  0  0
   17.5263    1.0801    0.9409 N   0  0  0  0  0  0  0  0  0  0  0  0
   18.9138    2.6695    2.1933 C   0  0  0  0  0  0  0  0  0  0  0  0
   18.9242    3.8078    3.1378 C   0  0  0  0  0  0  0  0  0  0  0  0
   18.1409    4.9416    2.9031 C   0  0  0  0  0  0  0  0  0  0  0  0
   18.1591    6.0079    3.7820 C   0  0  0  0  0  0  0  0  0  0  0  0
   18.9554    5.9681    4.9334 C   0  0  0  0  0  0  0  0  0  0  0  0
   18.9792    7.0827    5.7581 N   0  0  0  0  0  0  0  0  0  0  0  0
   19.3922    6.9449    7.1480 C   0  0  0  0  0  0  0  0  0  0  0  0
   19.7440    4.8385    5.1710 C   0  0  0  0  0  0  0  0  0  0  0  0
   19.7249    3.7781    4.2814 C   0  0  0  0  0  0  0  0  0  0  0  0
   20.1144    2.2659    1.6197 C   0  0  0  0  0  0  0  0  0  0  0  0
   21.3638    2.9354    1.8176 C   0  0  0  0  0  0  0  0  0  0  0  0
   22.3142    2.1788    1.2160 C   0  0  0  0  0  0  0  0  0  0  0  0
   20.2936    1.1375    0.8522 N   0  0  0  0  0  0  0  0  0  0  0  0
   21.6442    1.0541    0.6467 C   0  0  0  0  0  0  0  0  0  0  0  0
   22.3066   -0.0264    0.0585 C   0  0  0  0  0  0  0  0  0  0  0  0
   21.6234   -1.0905   -0.5362 C   0  0  0  0  0  0  0  0  0  0  0  0
   22.2684   -2.2471   -1.0687 C   0  0  0  0  0  0  0  0  0  0  0  0
   21.3084   -2.9808   -1.6835 C   0  0  0  0  0  0  0  0  0  0  0  0
   20.0796   -2.2621   -1.5355 C   0  0  0  0  0  0  0  0  0  0  0  0
   20.2770   -1.1300   -0.7778 N   0  0  0  0  0  0  0  0  0  0  0  0
   18.8865   -2.6212   -2.1530 C   0  0  0  0  0  0  0  0  0  0  0  0
   18.8872   -3.7661   -3.0892 C   0  0  0  0  0  0  0  0  0  0  0  0
   19.7418   -3.7817   -4.1935 C   0  0  0  0  0  0  0  0  0  0  0  0
   19.7541   -4.8481   -5.0758 C   0  0  0  0  0  0  0  0  0  0  0  0
   18.9031   -5.9381   -4.8711 C   0  0  0  0  0  0  0  0  0  0  0  0
   18.9152   -7.0586   -5.6882 N   0  0  0  0  0  0  0  0  0  0  0  0
   19.3964   -6.9478   -7.0586 C   0  0  0  0  0  0  0  0  0  0  0  0
   18.0512   -5.9323   -3.7595 C   0  0  0  0  0  0  0  0  0  0  0  0
   18.0408   -4.8603   -2.8874 C   0  0  0  0  0  0  0  0  0  0  0  0
   17.6982   -1.9362   -1.9221 C   0  0  0  0  0  0  0  0  0  0  0  0
   16.4583   -2.2254   -2.5802 C   0  0  0  0  0  0  0  0  0  0  0  0
   15.5104   -1.4598   -1.9880 C   0  0  0  0  0  0  0  0  0  0  0  0
   16.1736   -0.6922   -0.9794 C   0  0  0  0  0  0  0  0  0  0  0  0
   17.5212   -0.9553   -0.9785 N   0  0  0  0  0  0  0  0  0  0  0  0
   14.4379    0.1428   -0.0961 H   0  0  0  0  0  0  0  0  0  0  0  0
   14.4308    1.6772    2.0199 H   0  0  0  0  0  0  0  0  0  0  0  0
   16.3310    3.0849    3.3181 H   0  0  0  0  0  0  0  0  0  0  0  0
   17.5297    4.9934    2.0087 H   0  0  0  0  0  0  0  0  0  0  0  0
   17.5557    6.8869    3.5811 H   0  0  0  0  0  0  0  0  0  0  0  0
   18.1567    7.6647    5.6551 H   0  0  0  0  0  0  0  0  0  0  0  0
   20.4573    6.7157    7.2002 H   0  0  0  0  0  0  0  0  0  0  0  0
   18.8282    6.1571    7.6606 H   0  0  0  0  0  0  0  0  0  0  0  0
   19.2159    7.8974    7.6477 H   0  0  0  0  0  0  0  0  0  0  0  0
   20.3757    4.7806    6.0488 H   0  0  0  0  0  0  0  0  0  0  0  0
   20.3277    2.9000    4.4867 H   0  0  0  0  0  0  0  0  0  0  0  0
   21.4882    3.8690    2.3417 H   0  0  0  0  0  0  0  0  0  0  0  0
   23.3757    2.3564    1.1545 H   0  0  0  0  0  0  0  0  0  0  0  0
   23.3204   -2.4621   -0.9725 H   0  0  0  0  0  0  0  0  0  0  0  0
   21.4137   -3.9282   -2.1864 H   0  0  0  0  0  0  0  0  0  0  0  0
   20.3936   -2.9337   -4.3742 H   0  0  0  0  0  0  0  0  0  0  0  0
   20.4295   -4.8259   -5.9223 H   0  0  0  0  0  0  0  0  0  0  0  0
   18.0632   -7.6021   -5.6207 H   0  0  0  0  0  0  0  0  0  0  0  0
   18.8903   -6.1402   -7.6000 H   0  0  0  0  0  0  0  0  0  0  0  0
   19.2025   -7.8953   -7.5613 H   0  0  0  0  0  0  0  0  0  0  0  0
   20.4716   -6.7643   -7.0633 H   0  0  0  0  0  0  0  0  0  0  0  0
   17.3980   -6.7807   -3.5843 H   0  0  0  0  0  0  0  0  0  0  0  0
   17.3853   -4.8772   -2.0236 H   0  0  0  0  0  0  0  0  0  0  0  0
   16.3404   -2.9234   -3.3933 H   0  0  0  0  0  0  0  0  0  0  0  0
   14.4546   -1.4066   -2.2017 H   0  0  0  0  0  0  0  0  0  0  0  0
   29.7413   -0.0162   -0.0305 Ni  0  0  0  0  0  0  0  0  0  0  0  0
   33.1243    0.0428   -0.1273 C   0  0  0  0  0  0  0  0  0  0  0  0
   32.4765   -1.0468   -0.6736 C   0  0  0  0  0  0  0  0  0  0  0  0
   33.1484   -2.1792   -1.2327 C   0  0  0  0  0  0  0  0  0  0  0  0
   32.1928   -2.9647   -1.7850 C   0  0  0  0  0  0  0  0  0  0  0  0
   30.9387   -2.3023   -1.5789 C   0  0  0  0  0  0  0  0  0  0  0  0
   31.1191   -1.1539   -0.8487 N   0  0  0  0  0  0  0  0  0  0  0  0
   29.7316   -2.7229   -2.1265 C   0  0  0  0  0  0  0  0  0  0  0  0
   29.7213   -3.8931   -3.0313 C   0  0  0  0  0  0  0  0  0  0  0  0
   30.5045   -3.9114   -4.1891 C   0  0  0  0  0  0  0  0  0  0  0  0
   30.4863   -5.0018   -5.0378 C   0  0  0  0  0  0  0  0  0  0  0  0
   29.6901   -6.1168   -4.7478 C   0  0  0  0  0  0  0  0  0  0  0  0
   29.6664   -7.1648   -5.6556 N   0  0  0  0  0  0  0  0  0  0  0  0
   29.2534   -8.4912   -5.2178 C   0  0  0  0  0  0  0  0  0  0  0  0
   28.9016   -6.1022   -3.5936 C   0  0  0  0  0  0  0  0  0  0  0  0
   28.9206   -5.0027   -2.7528 C   0  0  0  0  0  0  0  0  0  0  0  0
   28.5310   -2.0751   -1.8578 C   0  0  0  0  0  0  0  0  0  0  0  0
   27.2816   -2.4144   -2.4681 C   0  0  0  0  0  0  0  0  0  0  0  0
   26.3312   -1.6622   -1.8610 C   0  0  0  0  0  0  0  0  0  0  0  0
   28.3518   -1.0799   -0.9242 N   0  0  0  0  0  0  0  0  0  0  0  0
   27.0012   -0.8611   -0.8877 C   0  0  0  0  0  0  0  0  0  0  0  0
   26.3388   -0.0513    0.0384 C   0  0  0  0  0  0  0  0  0  0  0  0
   27.0219    0.7613    0.9471 C   0  0  0  0  0  0  0  0  0  0  0  0
   26.3769    1.5333    1.9597 C   0  0  0  0  0  0  0  0  0  0  0  0
   27.3370    2.2934    2.5416 C   0  0  0  0  0  0  0  0  0  0  0  0
   28.5658    1.9921    1.8725 C   0  0  0  0  0  0  0  0  0  0  0  0
   28.3684    1.0056    0.9330 N   0  0  0  0  0  0  0  0  0  0  0  0
   29.7588    2.6731    2.0882 C   0  0  0  0  0  0  0  0  0  0  0  0
   29.7581    3.8365    3.0013 C   0  0  0  0  0  0  0  0  0  0  0  0
   28.9034    4.9176    2.7755 C   0  0  0  0  0  0  0  0  0  0  0  0
   28.8911    6.0113    3.6237 C   0  0  0  0  0  0  0  0  0  0  0  0
   29.7421    6.0494    4.7321 C   0  0  0  0  0  0  0  0  0  0  0  0
   29.7300    7.0913    5.6473 N   0  0  0  0  0  0  0  0  0  0  0  0
   29.2487    8.4045    5.2403 C   0  0  0  0  0  0  0  0  0  0  0  0
   30.5941    4.9634    4.9690 C   0  0  0  0  0  0  0  0  0  0  0  0
   30.6045    3.8784    4.1131 C   0  0  0  0  0  0  0  0  0  0  0  0
   30.9471    2.2983    1.4702 C   0  0  0  0  0  0  0  0  0  0  0  0
   32.1870    3.0037    1.6087 C   0  0  0  0  0  0  0  0  0  0  0  0
   33.1349    2.2587    0.9908 C   0  0  0  0  0  0  0  0  0  0  0  0
   32.4717    1.1069    0.4618 C   0  0  0  0  0  0  0  0  0  0  0  0
   31.1242    1.1634    0.7188 N   0  0  0  0  0  0  0  0  0  0  0  0
   34.2074    0.0627   -0.1603 H   0  0  0  0  0  0  0  0  0  0  0  0
   34.2146   -2.3372   -1.1960 H   0  0  0  0  0  0  0  0  0  0  0  0
   32.3145   -3.9112   -2.2865 H   0  0  0  0  0  0  0  0  0  0  0  0
   31.1157   -3.0498   -4.4348 H   0  0  0  0  0  0  0  0  0  0  0  0
   31.0897   -4.9976   -5.9395 H   0  0  0  0  0  0  0  0  0  0  0  0
   30.4888   -7.1912   -6.2461 H   0  0  0  0  0  0  0  0  0  0  0  0
   28.1883   -8.4921   -4.9828 H   0  0  0  0  0  0  0  0  0  0  0  0
   29.8174   -8.8195   -4.3372 H   0  0  0  0  0  0  0  0  0  0  0  0
   29.4297   -9.1867   -6.0384 H   0  0  0  0  0  0  0  0  0  0  0  0
   28.2699   -6.9463   -3.3456 H   0  0  0  0  0  0  0  0  0  0  0  0
   28.3178   -5.0115   -1.8511 H   0  0  0  0  0  0  0  0  0  0  0  0
   27.1572   -3.1296   -3.2648 H   0  0  0  0  0  0  0  0  0  0  0  0
   25.2697   -1.6409   -2.0478 H   0  0  0  0  0  0  0  0  0  0  0  0
   25.3249    1.4863    2.1904 H   0  0  0  0  0  0  0  0  0  0  0  0
   27.2316    2.9908    3.3565 H   0  0  0  0  0  0  0  0  0  0  0  0
   28.2517    4.9089    1.9086 H   0  0  0  0  0  0  0  0  0  0  0  0
   28.2156    6.8325    3.4175 H   0  0  0  0  0  0  0  0  0  0  0  0
   30.5819    7.1440    6.1927 H   0  0  0  0  0  0  0  0  0  0  0  0
   29.7548    8.7567    4.3341 H   0  0  0  0  0  0  0  0  0  0  0  0
   29.4425    9.1018    6.0554 H   0  0  0  0  0  0  0  0  0  0  0  0
   28.1735    8.3690    5.0601 H   0  0  0  0  0  0  0  0  0  0  0  0
   31.2473    4.9775    5.8352 H   0  0  0  0  0  0  0  0  0  0  0  0
   31.2601    3.0391    4.3181 H   0  0  0  0  0  0  0  0  0  0  0  0
   32.3049    3.9495    2.1125 H   0  0  0  0  0  0  0  0  0  0  0  0
   34.1907    2.4557    0.8922 H   0  0  0  0  0  0  0  0  0  0  0  0
   23.7147   -0.0424    0.0624 C   0  0  0  0  0  0  0  0  0  0  0  0
   24.9306   -0.0516    0.0549 C   0  0  0  0  0  0  0  0  0  0  0  0
  2  3  4  0  0  0  0
  3  4  4  0  0  0  0
  4  5  2  0  0  0  0
  5  6  4  0  0  0  0
  1  7  1  0  0  0  0
  3  7  4  0  0  0  0
  6  7  4  0  0  0  0
  6  8  4  0  0  0  0
  8  9  1  0  0  0  0
  9 10  4  0  0  0  0
 10 11  4  0  0  0  0
 11 12  4  0  0  0  0
 12 13  1  0  0  0  0
 13 14  1  0  0  0  0
 12 15  4  0  0  0  0
  9 16  4  0  0  0  0
 15 16  4  0  0  0  0
  8 17  4  0  0  0  0
 17 18  4  0  0  0  0
 18 19  2  0  0  0  0
  1 20  1  0  0  0  0
 17 20  4  0  0  0  0
 19 21  4  0  0  0  0
 20 21  4  0  0  0  0
 21 22  4  0  0  0  0
 22 23  4  0  0  0  0
 23 24  4  0  0  0  0
 24 25  2  0  0  0  0
 25 26  4  0  0  0  0
  1 27  1  0  0  0  0
 23 27  4  0  0  0  0
 26 27  4  0  0  0  0
 26 28  4  0  0  0  0
 28 29  1  0  0  0  0
 29 30  4  0  0  0  0
 30 31  4  0  0  0  0
 31 32  4  0  0  0  0
 32 33  1  0  0  0  0
 33 34  1  0  0  0  0
 32 35  4  0  0  0  0
 29 36  4  0  0  0  0
 35 36  4  0  0  0  0
 28 37  4  0  0  0  0
 37 38  4  0  0  0  0
 38 39  2  0  0  0  0
  2 40  4  0  0  0  0
 39 40  4  0  0  0  0
  1 41  1  0  0  0  0
 37 41  4  0  0  0  0
 40 41  4  0  0  0  0
  2 42  1  0  0  0  0
  4 43  1  0  0  0  0
  5 44  1  0  0  0  0
 10 45  1  0  0  0  0
 11 46  1  0  0  0  0
 13 47  1  0  0  0  0
 14 48  1  0  0  0  0
 14 49  1  0  0  0  0
 14 50  1  0  0  0  0
 15 51  1  0  0  0  0
 16 52  1  0  0  0  0
 18 53  1  0  0  0  0
 19 54  1  0  0  0  0
 24 55  1  0  0  0  0
 25 56  1  0  0  0  0
 30 57  1  0  0  0  0
 31 58  1  0  0  0  0
 33 59  1  0  0  0  0
 34 60  1  0  0  0  0
 34 61  1  0  0  0  0
 34 62  1  0  0  0  0
 35 63  1  0  0  0  0
 36 64  1  0  0  0  0
 38 65  1  0  0  0  0
 39 66  1  0  0  0  0
 68 69  4  0  0  0  0
 69 70  4  0  0  0  0
 70 71  2  0  0  0  0
 71 72  4  0  0  0  0
 67 73  1  0  0  0  0
 69 73  4  0  0  0  0
 72 73  4  0  0  0  0
 72 74  4  0  0  0  0
 74 75  1  0  0  0  0
 75 76  4  0  0  0  0
 76 77  4  0  0  0  0
 77 78  4  0  0  0  0
 78 79  1  0  0  0  0
 79 80  1  0  0  0  0
 78 81  4  0  0  0  0
 75 82  4  0  0  0  0
 81 82  4  0  0  0  0
 74 83  4  0  0  0  0
 83 84  4  0  0  0  0
 84 85  2  0  0  0  0
 67 86  1  0  0  0  0
 83 86  4  0  0  0  0
 85 87  4  0  0  0  0
 86 87  4  0  0  0  0
 87 88  4  0  0  0  0
 88 89  4  0  0  0  0
 89 90  4  0  0  0  0
 90 91  2  0  0  0  0
 91 92  4  0  0  0  0
 67 93  1  0  0  0  0
 89 93  4  0  0  0  0
 92 93  4  0  0  0  0
 92 94  4  0  0  0  0
 94 95  1  0  0  0  0
 95 96  4  0  0  0  0
 96 97  4  0  0  0  0
 97 98  4  0  0  0  0
 98 99  1  0  0  0  0
 99100  1  0  0  0  0
 98101  4  0  0  0  0
 95102  4  0  0  0  0
101102  4  0  0  0  0
 94103  4  0  0  0  0
103104  4  0  0  0  0
104105  2  0  0  0  0
 68106  4  0  0  0  0
105106  4  0  0  0  0
 67107  1  0  0  0  0
103107  4  0  0  0  0
106107  4  0  0  0  0
 68108  1  0  0  0  0
 70109  1  0  0  0  0
 71110  1  0  0  0  0
 76111  1  0  0  0  0
 77112  1  0  0  0  0
 79113  1  0  0  0  0
 80114  1  0  0  0  0
 80115  1  0  0  0  0
 80116  1  0  0  0  0
 81117  1  0  0  0  0
 82118  1  0  0  0  0
 84119  1  0  0  0  0
 85120  1  0  0  0  0
 90121  1  0  0  0  0
 91122  1  0  0  0  0
 96123  1  0  0  0  0
 97124  1  0  0  0  0
 99125  1  0  0  0  0
100126  1  0  0  0  0
100127  1  0  0  0  0
100128  1  0  0  0  0
101129  1  0  0  0  0
102130  1  0  0  0  0
104131  1  0  0  0  0
105132  1  0  0  0  0
 22133  4  0  0  0  0
 88134  4  0  0  0  0
133134  3  0  0  0  0
M  END
