 xtb: 6.5.1 (b24c23e)
          07282209253D

390431  0     0  0            999 V2000
   55.8258    0.0515    0.0835 C   0  0  0  0  0  0  0  0  0  0  0  0
   56.4410    1.2283    0.4900 C   0  0  0  0  0  0  0  0  0  0  0  0
   55.7952    2.4169    0.9324 C   0  0  0  0  0  0  0  0  0  0  0  0
   56.7616    3.3388    1.2216 C   0  0  0  0  0  0  0  0  0  0  0  0
   58.0294    2.7461    0.9581 C   0  0  0  0  0  0  0  0  0  0  0  0
   57.7849    1.4718    0.5297 N   0  0  0  0  0  0  0  0  0  0  0  0
   59.2943    3.3224    1.1192 C   0  0  0  0  0  0  0  0  0  0  0  0
   59.3338    4.7385    1.5599 C   0  0  0  0  0  0  0  0  0  0  0  0
   58.7902    5.7185    0.8224 C   0  0  0  0  0  0  0  0  0  0  0  0
   58.8053    7.1618    1.2545 C   0  0  0  0  0  0  0  0  0  0  0  0
   59.7736    7.3830    2.3316 N   0  0  0  0  0  0  0  0  0  0  0  0
   60.1514    6.3553    3.1552 C   0  0  0  0  0  0  0  0  0  0  0  0
   59.9940    5.0635    2.8159 C   0  0  0  0  0  0  0  0  0  0  0  0
   60.5059    2.6641    0.8952 C   0  0  0  0  0  0  0  0  0  0  0  0
   61.8066    3.2935    1.0349 C   0  0  0  0  0  0  0  0  0  0  0  0
   62.7229    2.3495    0.7362 C   0  0  0  0  0  0  0  0  0  0  0  0
   60.6538    1.3689    0.5016 N   0  0  0  0  0  0  0  0  0  0  0  0
   61.9805    1.1487    0.4040 C   0  0  0  0  0  0  0  0  0  0  0  0
   62.6109   -0.0571    0.0362 C   0  0  0  0  0  0  0  0  0  0  0  0
   61.9695   -1.2494   -0.3505 C   0  0  0  0  0  0  0  0  0  0  0  0
   62.6082   -2.4641   -0.7152 C   0  0  0  0  0  0  0  0  0  0  0  0
   61.6369   -3.3708   -1.0383 C   0  0  0  0  0  0  0  0  0  0  0  0
   60.3740   -2.7351   -0.8851 C   0  0  0  0  0  0  0  0  0  0  0  0
   60.6272   -1.4563   -0.4624 N   0  0  0  0  0  0  0  0  0  0  0  0
   59.1102   -3.2994   -1.0902 C   0  0  0  0  0  0  0  0  0  0  0  0
   59.0783   -4.7017   -1.5707 C   0  0  0  0  0  0  0  0  0  0  0  0
   58.4984   -5.6788   -0.8575 C   0  0  0  0  0  0  0  0  0  0  0  0
   58.4408   -7.1059   -1.3364 C   0  0  0  0  0  0  0  0  0  0  0  0
   59.3954   -7.3400   -2.4234 N   0  0  0  0  0  0  0  0  0  0  0  0
   59.8116   -6.3057   -3.2206 C   0  0  0  0  0  0  0  0  0  0  0  0
   59.7149   -5.0191   -2.8416 C   0  0  0  0  0  0  0  0  0  0  0  0
   57.8970   -2.6372   -0.8745 C   0  0  0  0  0  0  0  0  0  0  0  0
   56.5888   -3.2163   -1.1365 C   0  0  0  0  0  0  0  0  0  0  0  0
   55.6803   -2.2792   -0.7973 C   0  0  0  0  0  0  0  0  0  0  0  0
   56.4323   -1.1230   -0.3437 C   0  0  0  0  0  0  0  0  0  0  0  0
   57.7630   -1.3715   -0.4110 N   0  0  0  0  0  0  0  0  0  0  0  0
   54.7405    0.0619    0.0977 H   0  0  0  0  0  0  0  0  0  0  0  0
   54.7268    2.5363    1.0185 H   0  0  0  0  0  0  0  0  0  0  0  0
   56.6161    4.3398    1.5942 H   0  0  0  0  0  0  0  0  0  0  0  0
   58.5070    0.8047    0.2790 H   0  0  0  0  0  0  0  0  0  0  0  0
   58.3004    5.5170   -0.1232 H   0  0  0  0  0  0  0  0  0  0  0  0
   57.7955    7.4727    1.5824 H   0  0  0  0  0  0  0  0  0  0  0  0
   59.0839    7.8064    0.4097 H   0  0  0  0  0  0  0  0  0  0  0  0
   59.7127    8.2975    2.7552 H   0  0  0  0  0  0  0  0  0  0  0  0
   60.6612    6.6639    4.0623 H   0  0  0  0  0  0  0  0  0  0  0  0
   60.3430    4.2659    3.4560 H   0  0  0  0  0  0  0  0  0  0  0  0
   61.9732    4.3207    1.3164 H   0  0  0  0  0  0  0  0  0  0  0  0
   63.7978    2.4339    0.7257 H   0  0  0  0  0  0  0  0  0  0  0  0
   63.6756   -2.6159   -0.7230 H   0  0  0  0  0  0  0  0  0  0  0  0
   61.7785   -4.3929   -1.3499 H   0  0  0  0  0  0  0  0  0  0  0  0
   59.9086   -0.7708   -0.2548 H   0  0  0  0  0  0  0  0  0  0  0  0
   58.0265   -5.4845    0.0986 H   0  0  0  0  0  0  0  0  0  0  0  0
   57.4164   -7.3549   -1.6712 H   0  0  0  0  0  0  0  0  0  0  0  0
   58.6885   -7.7910   -0.5143 H   0  0  0  0  0  0  0  0  0  0  0  0
   59.2857   -8.2359   -2.8763 H   0  0  0  0  0  0  0  0  0  0  0  0
   60.3002   -6.6092   -4.1410 H   0  0  0  0  0  0  0  0  0  0  0  0
   60.0923   -4.2193   -3.4628 H   0  0  0  0  0  0  0  0  0  0  0  0
   56.4138   -4.2016   -1.5376 H   0  0  0  0  0  0  0  0  0  0  0  0
   54.6039   -2.3319   -0.8491 H   0  0  0  0  0  0  0  0  0  0  0  0
  155.5829   -0.1003    0.0675 C   0  0  0  0  0  0  0  0  0  0  0  0
  154.9677   -1.3124   -0.2176 C   0  0  0  0  0  0  0  0  0  0  0  0
  155.6125   -2.5594   -0.4511 C   0  0  0  0  0  0  0  0  0  0  0  0
  154.6467   -3.4918   -0.7064 C   0  0  0  0  0  0  0  0  0  0  0  0
  153.3804   -2.8431   -0.6458 C   0  0  0  0  0  0  0  0  0  0  0  0
  153.6249   -1.5343   -0.3382 N   0  0  0  0  0  0  0  0  0  0  0  0
  152.1164   -3.4119   -0.8372 C   0  0  0  0  0  0  0  0  0  0  0  0
  152.0768   -4.8500   -1.1998 C   0  0  0  0  0  0  0  0  0  0  0  0
  152.6426   -5.3064   -2.3273 C   0  0  0  0  0  0  0  0  0  0  0  0
  152.6282   -6.7637   -2.7093 C   0  0  0  0  0  0  0  0  0  0  0  0
  151.6397   -7.5083   -1.9249 N   0  0  0  0  0  0  0  0  0  0  0  0
  151.2368   -7.0564   -0.6957 C   0  0  0  0  0  0  0  0  0  0  0  0
  151.3920   -5.7772   -0.3108 C   0  0  0  0  0  0  0  0  0  0  0  0
  150.9054   -2.7269   -0.7120 C   0  0  0  0  0  0  0  0  0  0  0  0
  149.6068   -3.3288   -0.9546 C   0  0  0  0  0  0  0  0  0  0  0  0
  148.6904   -2.3630   -0.7372 C   0  0  0  0  0  0  0  0  0  0  0  0
  150.7565   -1.4168   -0.3718 N   0  0  0  0  0  0  0  0  0  0  0  0
  149.4308   -1.1707   -0.3714 C   0  0  0  0  0  0  0  0  0  0  0  0
  148.7994    0.0509   -0.0621 C   0  0  0  0  0  0  0  0  0  0  0  0
  149.4402    1.2632    0.2575 C   0  0  0  0  0  0  0  0  0  0  0  0
  148.8004    2.4894    0.5798 C   0  0  0  0  0  0  0  0  0  0  0  0
  149.7716    3.4239    0.8104 C   0  0  0  0  0  0  0  0  0  0  0  0
  151.0357    2.7976    0.6304 C   0  0  0  0  0  0  0  0  0  0  0  0
  150.7830    1.4911    0.3029 N   0  0  0  0  0  0  0  0  0  0  0  0
  152.2994    3.3782    0.7835 C   0  0  0  0  0  0  0  0  0  0  0  0
  152.3318    4.8207    1.1250 C   0  0  0  0  0  0  0  0  0  0  0  0
  152.8919    5.2636    2.2607 C   0  0  0  0  0  0  0  0  0  0  0  0
  152.9495    6.7257    2.6185 C   0  0  0  0  0  0  0  0  0  0  0  0
  152.0142    7.5083    1.8058 N   0  0  0  0  0  0  0  0  0  0  0  0
  151.6201    7.0611    0.5717 C   0  0  0  0  0  0  0  0  0  0  0  0
  151.7178    5.7703    0.2073 C   0  0  0  0  0  0  0  0  0  0  0  0
  153.5125    2.6969    0.6382 C   0  0  0  0  0  0  0  0  0  0  0  0
  154.8217    3.3212    0.7477 C   0  0  0  0  0  0  0  0  0  0  0  0
  155.7297    2.3431    0.5549 C   0  0  0  0  0  0  0  0  0  0  0  0
  154.9769    1.1253    0.3131 C   0  0  0  0  0  0  0  0  0  0  0  0
  153.6461    1.3775    0.3624 N   0  0  0  0  0  0  0  0  0  0  0  0
  156.6678   -0.1214    0.0949 H   0  0  0  0  0  0  0  0  0  0  0  0
  156.6798   -2.7111   -0.4191 H   0  0  0  0  0  0  0  0  0  0  0  0
  154.7915   -4.5403   -0.9105 H   0  0  0  0  0  0  0  0  0  0  0  0
  152.9034   -0.8315   -0.2162 H   0  0  0  0  0  0  0  0  0  0  0  0
  153.1511   -4.6451   -3.0193 H   0  0  0  0  0  0  0  0  0  0  0  0
  153.6331   -7.2048   -2.5699 H   0  0  0  0  0  0  0  0  0  0  0  0
  152.3711   -6.8736   -3.7717 H   0  0  0  0  0  0  0  0  0  0  0  0
  151.6987   -8.5099   -2.0368 H   0  0  0  0  0  0  0  0  0  0  0  0
  150.7102   -7.7891   -0.0925 H   0  0  0  0  0  0  0  0  0  0  0  0
  151.0234   -5.4267    0.6427 H   0  0  0  0  0  0  0  0  0  0  0  0
  149.4420   -4.3502   -1.2573 H   0  0  0  0  0  0  0  0  0  0  0  0
  147.6167   -2.4233   -0.8168 H   0  0  0  0  0  0  0  0  0  0  0  0
  147.7324    2.6276    0.6298 H   0  0  0  0  0  0  0  0  0  0  0  0
  149.6290    4.4559    1.0869 H   0  0  0  0  0  0  0  0  0  0  0  0
  151.5021    0.7962    0.1310 H   0  0  0  0  0  0  0  0  0  0  0  0
  153.3465    4.5868    2.9746 H   0  0  0  0  0  0  0  0  0  0  0  0
  153.9785    7.1100    2.4882 H   0  0  0  0  0  0  0  0  0  0  0  0
  152.6820    6.8675    3.6743 H   0  0  0  0  0  0  0  0  0  0  0  0
  152.1266    8.5070    1.9033 H   0  0  0  0  0  0  0  0  0  0  0  0
  151.1474    7.8113   -0.0542 H   0  0  0  0  0  0  0  0  0  0  0  0
  151.3577    5.4273   -0.7522 H   0  0  0  0  0  0  0  0  0  0  0  0
  154.9975    4.3685    0.9334 H   0  0  0  0  0  0  0  0  0  0  0  0
  156.8065    2.4106    0.5588 H   0  0  0  0  0  0  0  0  0  0  0  0
   64.0168   -0.0836    0.0457 C   0  0  0  0  0  0  0  0  0  0  0  0
   65.2411   -0.1078    0.0574 C   0  0  0  0  0  0  0  0  0  0  0  0
   66.5840   -0.1265    0.0704 C   0  0  0  0  0  0  0  0  0  0  0  0
   67.8146   -0.1397    0.0796 C   0  0  0  0  0  0  0  0  0  0  0  0
   69.1528   -0.1472    0.0871 C   0  0  0  0  0  0  0  0  0  0  0  0
   70.3836   -0.1490    0.0907 C   0  0  0  0  0  0  0  0  0  0  0  0
   71.7264   -0.1446    0.0892 C   0  0  0  0  0  0  0  0  0  0  0  0
   72.9512   -0.1357    0.0807 C   0  0  0  0  0  0  0  0  0  0  0  0
   82.6272    0.0311   -0.0228 C   0  0  0  0  0  0  0  0  0  0  0  0
   83.8526    0.0288   -0.0252 C   0  0  0  0  0  0  0  0  0  0  0  0
   85.1942    0.0219   -0.0213 C   0  0  0  0  0  0  0  0  0  0  0  0
   86.4256    0.0118   -0.0101 C   0  0  0  0  0  0  0  0  0  0  0  0
   87.7624    0.0001    0.0020 C   0  0  0  0  0  0  0  0  0  0  0  0
   88.9937   -0.0125    0.0144 C   0  0  0  0  0  0  0  0  0  0  0  0
   90.3352   -0.0232    0.0221 C   0  0  0  0  0  0  0  0  0  0  0  0
   91.5606   -0.0308    0.0243 C   0  0  0  0  0  0  0  0  0  0  0  0
  101.2382    0.0174   -0.0348 C   0  0  0  0  0  0  0  0  0  0  0  0
  102.4637    0.0114   -0.0317 C   0  0  0  0  0  0  0  0  0  0  0  0
  103.8051    0.0023   -0.0233 C   0  0  0  0  0  0  0  0  0  0  0  0
  105.0364   -0.0092   -0.0088 C   0  0  0  0  0  0  0  0  0  0  0  0
  106.3731   -0.0205    0.0057 C   0  0  0  0  0  0  0  0  0  0  0  0
  107.6046   -0.0314    0.0184 C   0  0  0  0  0  0  0  0  0  0  0  0
  108.9460   -0.0382    0.0295 C   0  0  0  0  0  0  0  0  0  0  0  0
  110.1715   -0.0377    0.0343 C   0  0  0  0  0  0  0  0  0  0  0  0
  119.8492    0.0125   -0.0313 C   0  0  0  0  0  0  0  0  0  0  0  0
  121.0746    0.0028   -0.0294 C   0  0  0  0  0  0  0  0  0  0  0  0
  122.4161   -0.0116   -0.0227 C   0  0  0  0  0  0  0  0  0  0  0  0
  123.6474   -0.0246   -0.0101 C   0  0  0  0  0  0  0  0  0  0  0  0
  124.9842   -0.0379    0.0025 C   0  0  0  0  0  0  0  0  0  0  0  0
  126.2156   -0.0468    0.0162 C   0  0  0  0  0  0  0  0  0  0  0  0
  127.5571   -0.0522    0.0235 C   0  0  0  0  0  0  0  0  0  0  0  0
  128.7826   -0.0549    0.0246 C   0  0  0  0  0  0  0  0  0  0  0  0
  138.4589    0.1158   -0.0432 C   0  0  0  0  0  0  0  0  0  0  0  0
  139.6836    0.1260   -0.0549 C   0  0  0  0  0  0  0  0  0  0  0  0
  141.0265    0.1310   -0.0634 C   0  0  0  0  0  0  0  0  0  0  0  0
  142.2572    0.1303   -0.0683 C   0  0  0  0  0  0  0  0  0  0  0  0
  143.5955    0.1236   -0.0722 C   0  0  0  0  0  0  0  0  0  0  0  0
  144.8261    0.1128   -0.0745 C   0  0  0  0  0  0  0  0  0  0  0  0
  146.1691    0.0972   -0.0745 C   0  0  0  0  0  0  0  0  0  0  0  0
  147.3935    0.0761   -0.0713 C   0  0  0  0  0  0  0  0  0  0  0  0
   74.3560   -0.1216    0.0669 C   0  0  0  0  0  0  0  0  0  0  0  0
   74.9987   -0.3217    1.3039 C   0  0  0  0  0  0  0  0  0  0  0  0
   74.3668   -0.5125    2.5599 C   0  0  0  0  0  0  0  0  0  0  0  0
   75.3453   -0.6417    3.5075 C   0  0  0  0  0  0  0  0  0  0  0  0
   76.6040   -0.5424    2.8550 C   0  0  0  0  0  0  0  0  0  0  0  0
   76.3432   -0.3461    1.5247 N   0  0  0  0  0  0  0  0  0  0  0  0
   77.8711   -0.6030    3.4463 C   0  0  0  0  0  0  0  0  0  0  0  0
   77.9112   -0.8380    4.9116 C   0  0  0  0  0  0  0  0  0  0  0  0
   77.4482   -1.9730    5.4563 C   0  0  0  0  0  0  0  0  0  0  0  0
   77.5328   -2.2518    6.9341 C   0  0  0  0  0  0  0  0  0  0  0  0
   77.7806   -1.0220    7.6912 N   0  0  0  0  0  0  0  0  0  0  0  0
   78.3975    0.0501    7.1018 C   0  0  0  0  0  0  0  0  0  0  0  0
   78.4660    0.2004    5.7671 C   0  0  0  0  0  0  0  0  0  0  0  0
   79.0870   -0.4624    2.7766 C   0  0  0  0  0  0  0  0  0  0  0  0
   80.3804   -0.5949    3.4225 C   0  0  0  0  0  0  0  0  0  0  0  0
   81.3090   -0.4223    2.4590 C   0  0  0  0  0  0  0  0  0  0  0  0
   79.2514   -0.2222    1.4460 N   0  0  0  0  0  0  0  0  0  0  0  0
   80.5811   -0.1885    1.2275 C   0  0  0  0  0  0  0  0  0  0  0  0
   81.2237    0.0301   -0.0086 C   0  0  0  0  0  0  0  0  0  0  0  0
   80.5805    0.2382   -1.2446 C   0  0  0  0  0  0  0  0  0  0  0  0
   81.2119    0.4334   -2.5000 C   0  0  0  0  0  0  0  0  0  0  0  0
   80.2329    0.5762   -3.4452 C   0  0  0  0  0  0  0  0  0  0  0  0
   78.9744    0.4792   -2.7918 C   0  0  0  0  0  0  0  0  0  0  0  0
   79.2361    0.2719   -1.4632 N   0  0  0  0  0  0  0  0  0  0  0  0
   77.7073    0.5483   -3.3818 C   0  0  0  0  0  0  0  0  0  0  0  0
   77.6678    0.8016   -4.8440 C   0  0  0  0  0  0  0  0  0  0  0  0
   78.1340    1.9428   -5.3729 C   0  0  0  0  0  0  0  0  0  0  0  0
   78.0507    2.2425   -6.8466 C   0  0  0  0  0  0  0  0  0  0  0  0
   77.7992    1.0243   -7.6209 N   0  0  0  0  0  0  0  0  0  0  0  0
   77.1799   -0.0546   -7.0465 C   0  0  0  0  0  0  0  0  0  0  0  0
   77.1110   -0.2235   -5.7140 C   0  0  0  0  0  0  0  0  0  0  0  0
   76.4911    0.3996   -2.7134 C   0  0  0  0  0  0  0  0  0  0  0  0
   75.1973    0.5322   -3.3586 C   0  0  0  0  0  0  0  0  0  0  0  0
   74.2691    0.3447   -2.3977 C   0  0  0  0  0  0  0  0  0  0  0  0
   74.9975    0.1049   -1.1675 C   0  0  0  0  0  0  0  0  0  0  0  0
   76.3276    0.1473   -1.3855 N   0  0  0  0  0  0  0  0  0  0  0  0
   73.2997   -0.5383    2.7109 H   0  0  0  0  0  0  0  0  0  0  0  0
   75.2109   -0.7843    4.5673 H   0  0  0  0  0  0  0  0  0  0  0  0
   77.0534   -0.2262    0.8103 H   0  0  0  0  0  0  0  0  0  0  0  0
   77.0581   -2.7805    4.8477 H   0  0  0  0  0  0  0  0  0  0  0  0
   78.3300   -2.9911    7.1385 H   0  0  0  0  0  0  0  0  0  0  0  0
   76.5892   -2.6862    7.2912 H   0  0  0  0  0  0  0  0  0  0  0  0
   77.9900   -1.1778    8.6666 H   0  0  0  0  0  0  0  0  0  0  0  0
   78.7500    0.8079    7.7942 H   0  0  0  0  0  0  0  0  0  0  0  0
   78.8886    1.0893    5.3211 H   0  0  0  0  0  0  0  0  0  0  0  0
   80.5339   -0.8057    4.4686 H   0  0  0  0  0  0  0  0  0  0  0  0
   82.3834   -0.4509    2.5459 H   0  0  0  0  0  0  0  0  0  0  0  0
   82.2790    0.4538   -2.6522 H   0  0  0  0  0  0  0  0  0  0  0  0
   80.3668    0.7258   -4.5041 H   0  0  0  0  0  0  0  0  0  0  0  0
   78.5262    0.1514   -0.7485 H   0  0  0  0  0  0  0  0  0  0  0  0
   78.5261    2.7407   -4.7530 H   0  0  0  0  0  0  0  0  0  0  0  0
   77.2560    2.9872   -7.0408 H   0  0  0  0  0  0  0  0  0  0  0  0
   78.9958    2.6788   -7.1973 H   0  0  0  0  0  0  0  0  0  0  0  0
   77.5899    1.1943   -8.5939 H   0  0  0  0  0  0  0  0  0  0  0  0
   76.8257   -0.8017   -7.7495 H   0  0  0  0  0  0  0  0  0  0  0  0
   76.6867   -1.1179   -5.2807 H   0  0  0  0  0  0  0  0  0  0  0  0
   75.0431    0.7522   -4.4027 H   0  0  0  0  0  0  0  0  0  0  0  0
   73.1946    0.3684   -2.4847 H   0  0  0  0  0  0  0  0  0  0  0  0
   92.9640   -0.0391    0.0172 C   0  0  0  0  0  0  0  0  0  0  0  0
   93.5992   -0.2534    1.2565 C   0  0  0  0  0  0  0  0  0  0  0  0
   92.9599   -0.4404    2.5089 C   0  0  0  0  0  0  0  0  0  0  0  0
   93.9329   -0.5890    3.4596 C   0  0  0  0  0  0  0  0  0  0  0  0
   95.1952   -0.5051    2.8122 C   0  0  0  0  0  0  0  0  0  0  0  0
   94.9422   -0.2988    1.4818 N   0  0  0  0  0  0  0  0  0  0  0  0
   96.4590   -0.5855    3.4083 C   0  0  0  0  0  0  0  0  0  0  0  0
   96.4898   -0.8292    4.8724 C   0  0  0  0  0  0  0  0  0  0  0  0
   96.0104   -1.9616    5.4083 C   0  0  0  0  0  0  0  0  0  0  0  0
   96.0857   -2.2503    6.8846 C   0  0  0  0  0  0  0  0  0  0  0  0
   96.3445   -1.0282    7.6502 N   0  0  0  0  0  0  0  0  0  0  0  0
   96.9772    0.0398    7.0700 C   0  0  0  0  0  0  0  0  0  0  0  0
   97.0535    0.1972    5.7365 C   0  0  0  0  0  0  0  0  0  0  0  0
   97.6796   -0.4561    2.7448 C   0  0  0  0  0  0  0  0  0  0  0  0
   98.9684   -0.6048    3.3962 C   0  0  0  0  0  0  0  0  0  0  0  0
   99.9034   -0.4365    2.4382 C   0  0  0  0  0  0  0  0  0  0  0  0
   97.8529   -0.2121    1.4160 N   0  0  0  0  0  0  0  0  0  0  0  0
   99.1839   -0.1907    1.2041 C   0  0  0  0  0  0  0  0  0  0  0  0
   99.8348    0.0247   -0.0283 C   0  0  0  0  0  0  0  0  0  0  0  0
   99.1997    0.2375   -1.2678 C   0  0  0  0  0  0  0  0  0  0  0  0
   99.8390    0.4229   -2.5205 C   0  0  0  0  0  0  0  0  0  0  0  0
   98.8659    0.5725   -3.4710 C   0  0  0  0  0  0  0  0  0  0  0  0
   97.6036    0.4908   -2.8233 C   0  0  0  0  0  0  0  0  0  0  0  0
   97.8567    0.2843   -1.4929 N   0  0  0  0  0  0  0  0  0  0  0  0
   96.3398    0.5739   -3.4190 C   0  0  0  0  0  0  0  0  0  0  0  0
   96.3093    0.8206   -4.8825 C   0  0  0  0  0  0  0  0  0  0  0  0
   96.7920    1.9529   -5.4158 C   0  0  0  0  0  0  0  0  0  0  0  0
   96.7174    2.2456   -6.8914 C   0  0  0  0  0  0  0  0  0  0  0  0
   96.4539    1.0263   -7.6599 N   0  0  0  0  0  0  0  0  0  0  0  0
   95.8184   -0.0413   -7.0821 C   0  0  0  0  0  0  0  0  0  0  0  0
   95.7423   -0.2019   -5.7491 C   0  0  0  0  0  0  0  0  0  0  0  0
   95.1191    0.4454   -2.7554 C   0  0  0  0  0  0  0  0  0  0  0  0
   93.8303    0.5968   -3.4061 C   0  0  0  0  0  0  0  0  0  0  0  0
   92.8954    0.4273   -2.4483 C   0  0  0  0  0  0  0  0  0  0  0  0
   93.6149    0.1783   -1.2148 C   0  0  0  0  0  0  0  0  0  0  0  0
   94.9459    0.1990   -1.4271 N   0  0  0  0  0  0  0  0  0  0  0  0
   91.8919   -0.4510    2.6558 H   0  0  0  0  0  0  0  0  0  0  0  0
   93.7924   -0.7348    4.5182 H   0  0  0  0  0  0  0  0  0  0  0  0
   95.6567   -0.1863    0.7705 H   0  0  0  0  0  0  0  0  0  0  0  0
   95.6129   -2.7605    4.7932 H   0  0  0  0  0  0  0  0  0  0  0  0
   96.8735   -3.0000    7.0877 H   0  0  0  0  0  0  0  0  0  0  0  0
   95.1357   -2.6760    7.2352 H   0  0  0  0  0  0  0  0  0  0  0  0
   96.5477   -1.1922    8.6256 H   0  0  0  0  0  0  0  0  0  0  0  0
   97.3357    0.7892    7.7684 H   0  0  0  0  0  0  0  0  0  0  0  0
   97.4889    1.0836    5.2977 H   0  0  0  0  0  0  0  0  0  0  0  0
   99.1148   -0.8219    4.4420 H   0  0  0  0  0  0  0  0  0  0  0  0
  100.9770   -0.4761    2.5301 H   0  0  0  0  0  0  0  0  0  0  0  0
  100.9069    0.4319   -2.6677 H   0  0  0  0  0  0  0  0  0  0  0  0
   99.0064    0.7174   -4.5297 H   0  0  0  0  0  0  0  0  0  0  0  0
   97.1422    0.1732   -0.7813 H   0  0  0  0  0  0  0  0  0  0  0  0
   97.1920    2.7491   -4.7988 H   0  0  0  0  0  0  0  0  0  0  0  0
   95.9322    2.9987   -7.0924 H   0  0  0  0  0  0  0  0  0  0  0  0
   97.6688    2.6687   -7.2411 H   0  0  0  0  0  0  0  0  0  0  0  0
   96.2508    1.1935   -8.6348 H   0  0  0  0  0  0  0  0  0  0  0  0
   95.4573   -0.7877   -7.7824 H   0  0  0  0  0  0  0  0  0  0  0  0
   95.3046   -1.0881   -5.3124 H   0  0  0  0  0  0  0  0  0  0  0  0
   93.6838    0.8163   -4.4515 H   0  0  0  0  0  0  0  0  0  0  0  0
   91.8217    0.4682   -2.5398 H   0  0  0  0  0  0  0  0  0  0  0  0
  111.5748   -0.0459    0.0254 C   0  0  0  0  0  0  0  0  0  0  0  0
  112.2108   -0.2583    1.2645 C   0  0  0  0  0  0  0  0  0  0  0  0
  111.5722   -0.4449    2.5174 C   0  0  0  0  0  0  0  0  0  0  0  0
  112.5458   -0.5912    3.4678 C   0  0  0  0  0  0  0  0  0  0  0  0
  113.8078   -0.5059    2.8199 C   0  0  0  0  0  0  0  0  0  0  0  0
  113.5539   -0.3013    1.4894 N   0  0  0  0  0  0  0  0  0  0  0  0
  115.0719   -0.5845    3.4155 C   0  0  0  0  0  0  0  0  0  0  0  0
  115.1034   -0.8270    4.8797 C   0  0  0  0  0  0  0  0  0  0  0  0
  114.6255   -1.9595    5.4167 C   0  0  0  0  0  0  0  0  0  0  0  0
  114.7014   -2.2468    6.8933 C   0  0  0  0  0  0  0  0  0  0  0  0
  114.9583   -1.0236    7.6576 N   0  0  0  0  0  0  0  0  0  0  0  0
  115.5898    0.0446    7.0765 C   0  0  0  0  0  0  0  0  0  0  0  0
  115.6661    0.2008    5.7429 C   0  0  0  0  0  0  0  0  0  0  0  0
  116.2921   -0.4551    2.7513 C   0  0  0  0  0  0  0  0  0  0  0  0
  117.5812   -0.6031    3.4022 C   0  0  0  0  0  0  0  0  0  0  0  0
  118.5157   -0.4364    2.4434 C   0  0  0  0  0  0  0  0  0  0  0  0
  116.4647   -0.2126    1.4222 N   0  0  0  0  0  0  0  0  0  0  0  0
  117.7956   -0.1919    1.2094 C   0  0  0  0  0  0  0  0  0  0  0  0
  118.4458    0.0221   -0.0235 C   0  0  0  0  0  0  0  0  0  0  0  0
  117.8099    0.2361   -1.2625 C   0  0  0  0  0  0  0  0  0  0  0  0
  118.4484    0.4226   -2.5154 C   0  0  0  0  0  0  0  0  0  0  0  0
  117.4747    0.5736   -3.4651 C   0  0  0  0  0  0  0  0  0  0  0  0
  116.2128    0.4915   -2.8166 C   0  0  0  0  0  0  0  0  0  0  0  0
  116.4668    0.2837   -1.4866 N   0  0  0  0  0  0  0  0  0  0  0  0
  114.9486    0.5746   -3.4115 C   0  0  0  0  0  0  0  0  0  0  0  0
  114.9174    0.8224   -4.8749 C   0  0  0  0  0  0  0  0  0  0  0  0
  115.3988    1.9555   -5.4076 C   0  0  0  0  0  0  0  0  0  0  0  0
  115.3235    2.2492   -6.8829 C   0  0  0  0  0  0  0  0  0  0  0  0
  115.0600    1.0304   -7.6523 N   0  0  0  0  0  0  0  0  0  0  0  0
  114.4259   -0.0382   -7.0749 C   0  0  0  0  0  0  0  0  0  0  0  0
  114.3508   -0.2000   -5.7419 C   0  0  0  0  0  0  0  0  0  0  0  0
  113.7284    0.4443   -2.7476 C   0  0  0  0  0  0  0  0  0  0  0  0
  112.4391    0.5944   -3.3978 C   0  0  0  0  0  0  0  0  0  0  0  0
  111.5047    0.4225   -2.4398 C   0  0  0  0  0  0  0  0  0  0  0  0
  112.2250    0.1733   -1.2068 C   0  0  0  0  0  0  0  0  0  0  0  0
  113.5558    0.1962   -1.4194 N   0  0  0  0  0  0  0  0  0  0  0  0
  110.5043   -0.4571    2.6647 H   0  0  0  0  0  0  0  0  0  0  0  0
  112.4059   -0.7362    4.5266 H   0  0  0  0  0  0  0  0  0  0  0  0
  114.2680   -0.1884    0.7776 H   0  0  0  0  0  0  0  0  0  0  0  0
  114.2287   -2.7593    4.8023 H   0  0  0  0  0  0  0  0  0  0  0  0
  115.4905   -2.9951    7.0969 H   0  0  0  0  0  0  0  0  0  0  0  0
  113.7521   -2.6737    7.2444 H   0  0  0  0  0  0  0  0  0  0  0  0
  115.1615   -1.1864    8.6332 H   0  0  0  0  0  0  0  0  0  0  0  0
  115.9475    0.7950    7.7743 H   0  0  0  0  0  0  0  0  0  0  0  0
  116.1005    1.0872    5.3033 H   0  0  0  0  0  0  0  0  0  0  0  0
  117.7282   -0.8188    4.4482 H   0  0  0  0  0  0  0  0  0  0  0  0
  119.5894   -0.4762    2.5347 H   0  0  0  0  0  0  0  0  0  0  0  0
  119.5163    0.4314   -2.6634 H   0  0  0  0  0  0  0  0  0  0  0  0
  117.6146    0.7198   -4.5237 H   0  0  0  0  0  0  0  0  0  0  0  0
  115.7527    0.1720   -0.7746 H   0  0  0  0  0  0  0  0  0  0  0  0
  115.7984    2.7516   -4.7902 H   0  0  0  0  0  0  0  0  0  0  0  0
  114.5381    3.0022   -7.0831 H   0  0  0  0  0  0  0  0  0  0  0  0
  116.2747    2.6728   -7.2328 H   0  0  0  0  0  0  0  0  0  0  0  0
  114.8560    1.1983   -8.6269 H   0  0  0  0  0  0  0  0  0  0  0  0
  114.0648   -0.7843   -7.7755 H   0  0  0  0  0  0  0  0  0  0  0  0
  113.9142   -1.0870   -5.3057 H   0  0  0  0  0  0  0  0  0  0  0  0
  112.2920    0.8148   -4.4428 H   0  0  0  0  0  0  0  0  0  0  0  0
  110.4310    0.4618   -2.5310 H   0  0  0  0  0  0  0  0  0  0  0  0
  130.1861   -0.0529    0.0158 C   0  0  0  0  0  0  0  0  0  0  0  0
  130.8246   -0.2612    1.2542 C   0  0  0  0  0  0  0  0  0  0  0  0
  130.1885   -0.4580    2.5069 C   0  0  0  0  0  0  0  0  0  0  0  0
  131.1638   -0.5985    3.4563 C   0  0  0  0  0  0  0  0  0  0  0  0
  132.4248   -0.4986    2.8081 C   0  0  0  0  0  0  0  0  0  0  0  0
  132.1682   -0.2920    1.4784 N   0  0  0  0  0  0  0  0  0  0  0  0
  133.6896   -0.5643    3.4035 C   0  0  0  0  0  0  0  0  0  0  0  0
  133.7233   -0.8149    4.8664 C   0  0  0  0  0  0  0  0  0  0  0  0
  133.2580   -1.9563    5.3956 C   0  0  0  0  0  0  0  0  0  0  0  0
  133.3355   -2.2525    6.8703 C   0  0  0  0  0  0  0  0  0  0  0  0
  133.5782   -1.0315    7.6430 N   0  0  0  0  0  0  0  0  0  0  0  0
  134.1974    0.0479    7.0693 C   0  0  0  0  0  0  0  0  0  0  0  0
  134.2729    0.2137    5.7368 C   0  0  0  0  0  0  0  0  0  0  0  0
  134.9083   -0.4145    2.7401 C   0  0  0  0  0  0  0  0  0  0  0  0
  136.1997   -0.5443    3.3909 C   0  0  0  0  0  0  0  0  0  0  0  0
  137.1316   -0.3583    2.4332 C   0  0  0  0  0  0  0  0  0  0  0  0
  135.0770   -0.1646    1.4124 N   0  0  0  0  0  0  0  0  0  0  0  0
  136.4080   -0.1217    1.1996 C   0  0  0  0  0  0  0  0  0  0  0  0
  137.0539    0.1031   -0.0326 C   0  0  0  0  0  0  0  0  0  0  0  0
  136.4158    0.3028   -1.2721 C   0  0  0  0  0  0  0  0  0  0  0  0
  137.0525    0.4931   -2.5257 C   0  0  0  0  0  0  0  0  0  0  0  0
  136.0776    0.6238   -3.4769 C   0  0  0  0  0  0  0  0  0  0  0  0
  134.8164    0.5256   -2.8289 C   0  0  0  0  0  0  0  0  0  0  0  0
  135.0722    0.3285   -1.4978 N   0  0  0  0  0  0  0  0  0  0  0  0
  133.5517    0.5881   -3.4250 C   0  0  0  0  0  0  0  0  0  0  0  0
  133.5177    0.8263   -4.8899 C   0  0  0  0  0  0  0  0  0  0  0  0
  133.9855    1.9615   -5.4301 C   0  0  0  0  0  0  0  0  0  0  0  0
  133.9079    2.2439   -6.9076 C   0  0  0  0  0  0  0  0  0  0  0  0
  133.6593    1.0168   -7.6686 N   0  0  0  0  0  0  0  0  0  0  0  0
  133.0379   -0.0554   -7.0841 C   0  0  0  0  0  0  0  0  0  0  0  0
  132.9640   -0.2088   -5.7501 C   0  0  0  0  0  0  0  0  0  0  0  0
  132.3331    0.4468   -2.7602 C   0  0  0  0  0  0  0  0  0  0  0  0
  131.0422    0.5806   -3.4105 C   0  0  0  0  0  0  0  0  0  0  0  0
  130.1100    0.4053   -2.4511 C   0  0  0  0  0  0  0  0  0  0  0  0
  130.8334    0.1688   -1.2173 C   0  0  0  0  0  0  0  0  0  0  0  0
  132.1638    0.2037   -1.4308 N   0  0  0  0  0  0  0  0  0  0  0  0
  129.1208   -0.4808    2.6546 H   0  0  0  0  0  0  0  0  0  0  0  0
  131.0258   -0.7485    4.5146 H   0  0  0  0  0  0  0  0  0  0  0  0
  132.8808   -0.1699    0.7667 H   0  0  0  0  0  0  0  0  0  0  0  0
  132.8711   -2.7567    4.7756 H   0  0  0  0  0  0  0  0  0  0  0  0
  134.1323   -2.9934    7.0701 H   0  0  0  0  0  0  0  0  0  0  0  0
  132.3905   -2.6919    7.2175 H   0  0  0  0  0  0  0  0  0  0  0  0
  133.7827   -1.1984    8.6176 H   0  0  0  0  0  0  0  0  0  0  0  0
  134.5456    0.7978    7.7724 H   0  0  0  0  0  0  0  0  0  0  0  0
  134.6969    1.1083    5.3036 H   0  0  0  0  0  0  0  0  0  0  0  0
  136.3498   -0.7616    4.4362 H   0  0  0  0  0  0  0  0  0  0  0  0
  138.2058   -0.3808    2.5245 H   0  0  0  0  0  0  0  0  0  0  0  0
  138.1202    0.5178   -2.6729 H   0  0  0  0  0  0  0  0  0  0  0  0
  136.2161    0.7665   -4.5361 H   0  0  0  0  0  0  0  0  0  0  0  0
  134.3592    0.2090   -0.7860 H   0  0  0  0  0  0  0  0  0  0  0  0
  134.3750    2.7667   -4.8180 H   0  0  0  0  0  0  0  0  0  0  0  0
  133.1140    2.9863   -7.1136 H   0  0  0  0  0  0  0  0  0  0  0  0
  134.8544    2.6761   -7.2597 H   0  0  0  0  0  0  0  0  0  0  0  0
  133.4539    1.1755   -8.6444 H   0  0  0  0  0  0  0  0  0  0  0  0
  132.6862   -0.8106   -7.7797 H   0  0  0  0  0  0  0  0  0  0  0  0
  132.5379   -1.0980   -5.3078 H   0  0  0  0  0  0  0  0  0  0  0  0
  130.8926    0.7939   -4.4567 H   0  0  0  0  0  0  0  0  0  0  0  0
  129.0359    0.4337   -2.5419 H   0  0  0  0  0  0  0  0  0  0  0  0
  1  2  4  0  0  0  0
  2  3  4  0  0  0  0
  3  4  2  0  0  0  0
  4  5  4  0  0  0  0
  2  6  4  0  0  0  0
  5  6  4  0  0  0  0
  5  7  4  0  0  0  0
  7  8  1  0  0  0  0
  8  9  2  0  0  0  0
  9 10  1  0  0  0  0
 10 11  1  0  0  0  0
 11 12  1  0  0  0  0
  8 13  1  0  0  0  0
 12 13  2  0  0  0  0
  7 14  4  0  0  0  0
 14 15  1  0  0  0  0
 15 16  2  0  0  0  0
 14 17  4  0  0  0  0
 16 18  1  0  0  0  0
 17 18  4  0  0  0  0
 18 19  4  0  0  0  0
 19 20  4  0  0  0  0
 20 21  4  0  0  0  0
 21 22  2  0  0  0  0
 22 23  4  0  0  0  0
 20 24  4  0  0  0  0
 23 24  4  0  0  0  0
 23 25  4  0  0  0  0
 25 26  1  0  0  0  0
 26 27  2  0  0  0  0
 27 28  1  0  0  0  0
 28 29  1  0  0  0  0
 29 30  1  0  0  0  0
 26 31  1  0  0  0  0
 30 31  2  0  0  0  0
 25 32  4  0  0  0  0
 32 33  1  0  0  0  0
 33 34  2  0  0  0  0
  1 35  4  0  0  0  0
 34 35  1  0  0  0  0
 32 36  4  0  0  0  0
 35 36  4  0  0  0  0
  1 37  1  0  0  0  0
  3 38  1  0  0  0  0
  4 39  1  0  0  0  0
  6 40  1  0  0  0  0
  9 41  1  0  0  0  0
 10 42  1  0  0  0  0
 10 43  1  0  0  0  0
 11 44  1  0  0  0  0
 12 45  1  0  0  0  0
 13 46  1  0  0  0  0
 15 47  1  0  0  0  0
 16 48  1  0  0  0  0
 21 49  1  0  0  0  0
 22 50  1  0  0  0  0
 24 51  1  0  0  0  0
 27 52  1  0  0  0  0
 28 53  1  0  0  0  0
 28 54  1  0  0  0  0
 29 55  1  0  0  0  0
 30 56  1  0  0  0  0
 31 57  1  0  0  0  0
 33 58  1  0  0  0  0
 34 59  1  0  0  0  0
 60 61  4  0  0  0  0
 61 62  4  0  0  0  0
 62 63  2  0  0  0  0
 63 64  4  0  0  0  0
 61 65  4  0  0  0  0
 64 65  4  0  0  0  0
 64 66  4  0  0  0  0
 66 67  1  0  0  0  0
 67 68  2  0  0  0  0
 68 69  1  0  0  0  0
 69 70  1  0  0  0  0
 70 71  1  0  0  0  0
 67 72  1  0  0  0  0
 71 72  2  0  0  0  0
 66 73  4  0  0  0  0
 73 74  1  0  0  0  0
 74 75  2  0  0  0  0
 73 76  4  0  0  0  0
 75 77  1  0  0  0  0
 76 77  4  0  0  0  0
 77 78  4  0  0  0  0
 78 79  4  0  0  0  0
 79 80  4  0  0  0  0
 80 81  2  0  0  0  0
 81 82  4  0  0  0  0
 79 83  4  0  0  0  0
 82 83  4  0  0  0  0
 82 84  4  0  0  0  0
 84 85  1  0  0  0  0
 85 86  2  0  0  0  0
 86 87  1  0  0  0  0
 87 88  1  0  0  0  0
 88 89  1  0  0  0  0
 85 90  1  0  0  0  0
 89 90  2  0  0  0  0
 84 91  4  0  0  0  0
 91 92  1  0  0  0  0
 92 93  2  0  0  0  0
 60 94  4  0  0  0  0
 93 94  1  0  0  0  0
 91 95  4  0  0  0  0
 94 95  4  0  0  0  0
 60 96  1  0  0  0  0
 62 97  1  0  0  0  0
 63 98  1  0  0  0  0
 65 99  1  0  0  0  0
 68100  1  0  0  0  0
 69101  1  0  0  0  0
 69102  1  0  0  0  0
 70103  1  0  0  0  0
 71104  1  0  0  0  0
 72105  1  0  0  0  0
 74106  1  0  0  0  0
 75107  1  0  0  0  0
 80108  1  0  0  0  0
 81109  1  0  0  0  0
 83110  1  0  0  0  0
 86111  1  0  0  0  0
 87112  1  0  0  0  0
 87113  1  0  0  0  0
 88114  1  0  0  0  0
 89115  1  0  0  0  0
 90116  1  0  0  0  0
 92117  1  0  0  0  0
 93118  1  0  0  0  0
 19119  4  0  0  0  0
119120  3  0  0  0  0
120121  4  0  0  0  0
121122  3  0  0  0  0
122123  4  0  0  0  0
123124  3  0  0  0  0
124125  4  0  0  0  0
125126  3  0  0  0  0
127128  3  0  0  0  0
128129  4  0  0  0  0
129130  3  0  0  0  0
130131  4  0  0  0  0
131132  3  0  0  0  0
132133  4  0  0  0  0
133134  3  0  0  0  0
135136  3  0  0  0  0
136137  4  0  0  0  0
137138  3  0  0  0  0
138139  4  0  0  0  0
139140  3  0  0  0  0
140141  4  0  0  0  0
141142  3  0  0  0  0
143144  3  0  0  0  0
144145  4  0  0  0  0
145146  3  0  0  0  0
146147  4  0  0  0  0
147148  3  0  0  0  0
148149  4  0  0  0  0
149150  3  0  0  0  0
151152  3  0  0  0  0
152153  4  0  0  0  0
153154  3  0  0  0  0
154155  4  0  0  0  0
155156  3  0  0  0  0
156157  4  0  0  0  0
 78158  4  0  0  0  0
157158  3  0  0  0  0
126159  4  0  0  0  0
159160  4  0  0  0  0
160161  4  0  0  0  0
161162  2  0  0  0  0
162163  4  0  0  0  0
160164  4  0  0  0  0
163164  4  0  0  0  0
163165  4  0  0  0  0
165166  1  0  0  0  0
166167  2  0  0  0  0
167168  1  0  0  0  0
168169  1  0  0  0  0
169170  1  0  0  0  0
166171  1  0  0  0  0
170171  2  0  0  0  0
165172  4  0  0  0  0
172173  1  0  0  0  0
173174  2  0  0  0  0
172175  4  0  0  0  0
174176  1  0  0  0  0
175176  4  0  0  0  0
127177  4  0  0  0  0
176177  4  0  0  0  0
177178  4  0  0  0  0
178179  4  0  0  0  0
179180  2  0  0  0  0
180181  4  0  0  0  0
178182  4  0  0  0  0
181182  4  0  0  0  0
181183  4  0  0  0  0
183184  1  0  0  0  0
184185  2  0  0  0  0
185186  1  0  0  0  0
186187  1  0  0  0  0
187188  1  0  0  0  0
184189  1  0  0  0  0
188189  2  0  0  0  0
183190  4  0  0  0  0
190191  1  0  0  0  0
191192  2  0  0  0  0
159193  4  0  0  0  0
192193  1  0  0  0  0
190194  4  0  0  0  0
193194  4  0  0  0  0
161195  1  0  0  0  0
162196  1  0  0  0  0
164197  1  0  0  0  0
167198  1  0  0  0  0
168199  1  0  0  0  0
168200  1  0  0  0  0
169201  1  0  0  0  0
170202  1  0  0  0  0
171203  1  0  0  0  0
173204  1  0  0  0  0
174205  1  0  0  0  0
179206  1  0  0  0  0
180207  1  0  0  0  0
182208  1  0  0  0  0
185209  1  0  0  0  0
186210  1  0  0  0  0
186211  1  0  0  0  0
187212  1  0  0  0  0
188213  1  0  0  0  0
189214  1  0  0  0  0
191215  1  0  0  0  0
192216  1  0  0  0  0
134217  4  0  0  0  0
217218  4  0  0  0  0
218219  4  0  0  0  0
219220  2  0  0  0  0
220221  4  0  0  0  0
218222  4  0  0  0  0
221222  4  0  0  0  0
221223  4  0  0  0  0
223224  1  0  0  0  0
224225  2  0  0  0  0
225226  1  0  0  0  0
226227  1  0  0  0  0
227228  1  0  0  0  0
224229  1  0  0  0  0
228229  2  0  0  0  0
223230  4  0  0  0  0
230231  1  0  0  0  0
231232  2  0  0  0  0
230233  4  0  0  0  0
232234  1  0  0  0  0
233234  4  0  0  0  0
135235  4  0  0  0  0
234235  4  0  0  0  0
235236  4  0  0  0  0
236237  4  0  0  0  0
237238  2  0  0  0  0
238239  4  0  0  0  0
236240  4  0  0  0  0
239240  4  0  0  0  0
239241  4  0  0  0  0
241242  1  0  0  0  0
242243  2  0  0  0  0
243244  1  0  0  0  0
244245  1  0  0  0  0
245246  1  0  0  0  0
242247  1  0  0  0  0
246247  2  0  0  0  0
241248  4  0  0  0  0
248249  1  0  0  0  0
249250  2  0  0  0  0
217251  4  0  0  0  0
250251  1  0  0  0  0
248252  4  0  0  0  0
251252  4  0  0  0  0
219253  1  0  0  0  0
220254  1  0  0  0  0
222255  1  0  0  0  0
225256  1  0  0  0  0
226257  1  0  0  0  0
226258  1  0  0  0  0
227259  1  0  0  0  0
228260  1  0  0  0  0
229261  1  0  0  0  0
231262  1  0  0  0  0
232263  1  0  0  0  0
237264  1  0  0  0  0
238265  1  0  0  0  0
240266  1  0  0  0  0
243267  1  0  0  0  0
244268  1  0  0  0  0
244269  1  0  0  0  0
245270  1  0  0  0  0
246271  1  0  0  0  0
247272  1  0  0  0  0
249273  1  0  0  0  0
250274  1  0  0  0  0
142275  4  0  0  0  0
275276  4  0  0  0  0
276277  4  0  0  0  0
277278  2  0  0  0  0
278279  4  0  0  0  0
276280  4  0  0  0  0
279280  4  0  0  0  0
279281  4  0  0  0  0
281282  1  0  0  0  0
282283  2  0  0  0  0
283284  1  0  0  0  0
284285  1  0  0  0  0
285286  1  0  0  0  0
282287  1  0  0  0  0
286287  2  0  0  0  0
281288  4  0  0  0  0
288289  1  0  0  0  0
289290  2  0  0  0  0
288291  4  0  0  0  0
290292  1  0  0  0  0
291292  4  0  0  0  0
143293  4  0  0  0  0
292293  4  0  0  0  0
293294  4  0  0  0  0
294295  4  0  0  0  0
295296  2  0  0  0  0
296297  4  0  0  0  0
294298  4  0  0  0  0
297298  4  0  0  0  0
297299  4  0  0  0  0
299300  1  0  0  0  0
300301  2  0  0  0  0
301302  1  0  0  0  0
302303  1  0  0  0  0
303304  1  0  0  0  0
300305  1  0  0  0  0
304305  2  0  0  0  0
299306  4  0  0  0  0
306307  1  0  0  0  0
307308  2  0  0  0  0
275309  4  0  0  0  0
308309  1  0  0  0  0
306310  4  0  0  0  0
309310  4  0  0  0  0
277311  1  0  0  0  0
278312  1  0  0  0  0
280313  1  0  0  0  0
283314  1  0  0  0  0
284315  1  0  0  0  0
284316  1  0  0  0  0
285317  1  0  0  0  0
286318  1  0  0  0  0
287319  1  0  0  0  0
289320  1  0  0  0  0
290321  1  0  0  0  0
295322  1  0  0  0  0
296323  1  0  0  0  0
298324  1  0  0  0  0
301325  1  0  0  0  0
302326  1  0  0  0  0
302327  1  0  0  0  0
303328  1  0  0  0  0
304329  1  0  0  0  0
305330  1  0  0  0  0
307331  1  0  0  0  0
308332  1  0  0  0  0
150333  4  0  0  0  0
333334  4  0  0  0  0
334335  4  0  0  0  0
335336  2  0  0  0  0
336337  4  0  0  0  0
334338  4  0  0  0  0
337338  4  0  0  0  0
337339  4  0  0  0  0
339340  1  0  0  0  0
340341  2  0  0  0  0
341342  1  0  0  0  0
342343  1  0  0  0  0
343344  1  0  0  0  0
340345  1  0  0  0  0
344345  2  0  0  0  0
339346  4  0  0  0  0
346347  1  0  0  0  0
347348  2  0  0  0  0
346349  4  0  0  0  0
348350  1  0  0  0  0
349350  4  0  0  0  0
151351  4  0  0  0  0
350351  4  0  0  0  0
351352  4  0  0  0  0
352353  4  0  0  0  0
353354  2  0  0  0  0
354355  4  0  0  0  0
352356  4  0  0  0  0
355356  4  0  0  0  0
355357  4  0  0  0  0
357358  1  0  0  0  0
358359  2  0  0  0  0
359360  1  0  0  0  0
360361  1  0  0  0  0
361362  1  0  0  0  0
358363  1  0  0  0  0
362363  2  0  0  0  0
357364  4  0  0  0  0
364365  1  0  0  0  0
365366  2  0  0  0  0
333367  4  0  0  0  0
366367  1  0  0  0  0
364368  4  0  0  0  0
367368  4  0  0  0  0
335369  1  0  0  0  0
336370  1  0  0  0  0
338371  1  0  0  0  0
341372  1  0  0  0  0
342373  1  0  0  0  0
342374  1  0  0  0  0
343375  1  0  0  0  0
344376  1  0  0  0  0
345377  1  0  0  0  0
347378  1  0  0  0  0
348379  1  0  0  0  0
353380  1  0  0  0  0
354381  1  0  0  0  0
356382  1  0  0  0  0
359383  1  0  0  0  0
360384  1  0  0  0  0
360385  1  0  0  0  0
361386  1  0  0  0  0
362387  1  0  0  0  0
363388  1  0  0  0  0
365389  1  0  0  0  0
366390  1  0  0  0  0
M  END
