 xtb: 6.5.1 (b24c23e)
          07302209393D

128147  0     0  0            999 V2000
   17.7123   -0.0540    0.0426 Cu  0  0  0  0  0  0  0  0  0  0  0  0
   14.3071   -0.1374    0.0581 C   0  0  0  0  0  0  0  0  0  0  0  0
   14.9378   -0.1879    1.2920 C   0  0  0  0  0  0  0  0  0  0  0  0
   14.2575   -0.2390    2.5547 C   0  0  0  0  0  0  0  0  0  0  0  0
   15.2121   -0.2528    3.5174 C   0  0  0  0  0  0  0  0  0  0  0  0
   16.4857   -0.2195    2.8504 C   0  0  0  0  0  0  0  0  0  0  0  0
   16.2875   -0.1747    1.5005 N   0  0  0  0  0  0  0  0  0  0  0  0
   17.7279   -0.1971    3.4889 C   0  0  0  0  0  0  0  0  0  0  0  0
   18.9634   -0.1269    2.8420 C   0  0  0  0  0  0  0  0  0  0  0  0
   20.2388   -0.1541    3.5008 C   0  0  0  0  0  0  0  0  0  0  0  0
   21.1881   -0.0934    2.5329 C   0  0  0  0  0  0  0  0  0  0  0  0
   19.1566   -0.0607    1.4877 N   0  0  0  0  0  0  0  0  0  0  0  0
   20.5010   -0.0360    1.2776 C   0  0  0  0  0  0  0  0  0  0  0  0
   21.1408    0.0191    0.0271 C   0  0  0  0  0  0  0  0  0  0  0  0
   20.4872    0.0546   -1.2170 C   0  0  0  0  0  0  0  0  0  0  0  0
   21.1608    0.0787   -2.4806 C   0  0  0  0  0  0  0  0  0  0  0  0
   20.2011    0.1022   -3.4398 C   0  0  0  0  0  0  0  0  0  0  0  0
   18.9328    0.1009   -2.7668 C   0  0  0  0  0  0  0  0  0  0  0  0
   17.6896    0.1078   -3.4032 C   0  0  0  0  0  0  0  0  0  0  0  0
   17.6810    0.1821   -4.8843 C   0  0  0  0  0  0  0  0  0  0  0  0
   17.1287   -0.8538   -5.6425 C   0  0  0  0  0  0  0  0  0  0  0  0
   17.1231   -0.7821   -7.0233 C   0  0  0  0  0  0  0  0  0  0  0  0
   17.6660    0.3284   -7.6726 C   0  0  0  0  0  0  0  0  0  0  0  0
   17.6348    0.3603   -9.1540 C   0  0  0  0  0  0  0  0  0  0  0  0
   18.1827    1.4668   -9.6796 O   0  0  0  0  0  0  0  0  0  0  0  0
   17.1666   -0.5095   -9.8438 O   0  0  0  0  0  0  0  0  0  0  0  0
   18.2171    1.3663   -6.9203 C   0  0  0  0  0  0  0  0  0  0  0  0
   18.2251    1.2903   -5.5386 C   0  0  0  0  0  0  0  0  0  0  0  0
   16.4538    0.0502   -2.7538 C   0  0  0  0  0  0  0  0  0  0  0  0
   15.1727    0.1037   -3.4050 C   0  0  0  0  0  0  0  0  0  0  0  0
   14.2289    0.0305   -2.4343 C   0  0  0  0  0  0  0  0  0  0  0  0
   14.9234   -0.0577   -1.1816 C   0  0  0  0  0  0  0  0  0  0  0  0
   16.2710   -0.0375   -1.4041 N   0  0  0  0  0  0  0  0  0  0  0  0
   19.1405    0.0618   -1.4136 N   0  0  0  0  0  0  0  0  0  0  0  0
   17.7355   -0.2491    4.9716 C   0  0  0  0  0  0  0  0  0  0  0  0
   17.2333   -1.3660    5.6444 C   0  0  0  0  0  0  0  0  0  0  0  0
   17.2435   -1.4110    7.0264 C   0  0  0  0  0  0  0  0  0  0  0  0
   17.7509   -0.3381    7.7618 C   0  0  0  0  0  0  0  0  0  0  0  0
   17.7373   -0.4318    9.2410 C   0  0  0  0  0  0  0  0  0  0  0  0
   18.2426    0.6503    9.8528 O   0  0  0  0  0  0  0  0  0  0  0  0
   17.3196   -1.3781    9.8591 O   0  0  0  0  0  0  0  0  0  0  0  0
   18.2513    0.7806    7.0947 C   0  0  0  0  0  0  0  0  0  0  0  0
   18.2449    0.8210    5.7114 C   0  0  0  0  0  0  0  0  0  0  0  0
   13.2221   -0.1502    0.0638 H   0  0  0  0  0  0  0  0  0  0  0  0
   13.1857   -0.2546    2.6744 H   0  0  0  0  0  0  0  0  0  0  0  0
   15.0733   -0.2718    4.5864 H   0  0  0  0  0  0  0  0  0  0  0  0
   20.3855   -0.2252    4.5663 H   0  0  0  0  0  0  0  0  0  0  0  0
   22.2602   -0.0930    2.6485 H   0  0  0  0  0  0  0  0  0  0  0  0
   22.2315    0.0712   -2.6081 H   0  0  0  0  0  0  0  0  0  0  0  0
   20.3367    0.1051   -4.5092 H   0  0  0  0  0  0  0  0  0  0  0  0
   16.7187   -1.7231   -5.1411 H   0  0  0  0  0  0  0  0  0  0  0  0
   16.7007   -1.5847   -7.6178 H   0  0  0  0  0  0  0  0  0  0  0  0
   18.1213    1.4090  -10.6469 H   0  0  0  0  0  0  0  0  0  0  0  0
   18.6369    2.2315   -7.4198 H   0  0  0  0  0  0  0  0  0  0  0  0
   18.6420    2.1026   -4.9539 H   0  0  0  0  0  0  0  0  0  0  0  0
   15.0216    0.1985   -4.4682 H   0  0  0  0  0  0  0  0  0  0  0  0
   13.1558    0.0418   -2.5422 H   0  0  0  0  0  0  0  0  0  0  0  0
   16.8496   -2.2050    5.0752 H   0  0  0  0  0  0  0  0  0  0  0  0
   16.8606   -2.2770    7.5552 H   0  0  0  0  0  0  0  0  0  0  0  0
   18.1985    0.5088   10.8124 H   0  0  0  0  0  0  0  0  0  0  0  0
   18.6428    1.6171    7.6614 H   0  0  0  0  0  0  0  0  0  0  0  0
   18.6231    1.6949    5.1930 H   0  0  0  0  0  0  0  0  0  0  0  0
   31.1762   -0.0492   -0.0485 Cu  0  0  0  0  0  0  0  0  0  0  0  0
   34.5813   -0.1305   -0.0733 C   0  0  0  0  0  0  0  0  0  0  0  0
   33.9508   -0.0356   -1.3047 C   0  0  0  0  0  0  0  0  0  0  0  0
   34.6312    0.0628   -2.5645 C   0  0  0  0  0  0  0  0  0  0  0  0
   33.6767    0.1607   -3.5224 C   0  0  0  0  0  0  0  0  0  0  0  0
   32.4031    0.1135   -2.8563 C   0  0  0  0  0  0  0  0  0  0  0  0
   32.6011    0.0004   -1.5105 N   0  0  0  0  0  0  0  0  0  0  0  0
   31.1608    0.2069   -3.4884 C   0  0  0  0  0  0  0  0  0  0  0  0
   29.9251    0.1990   -2.8379 C   0  0  0  0  0  0  0  0  0  0  0  0
   28.6498    0.2444   -3.4957 C   0  0  0  0  0  0  0  0  0  0  0  0
   27.7004    0.1927   -2.5273 C   0  0  0  0  0  0  0  0  0  0  0  0
   29.7320    0.1096   -1.4850 N   0  0  0  0  0  0  0  0  0  0  0  0
   28.3875    0.1082   -1.2736 C   0  0  0  0  0  0  0  0  0  0  0  0
   27.7477    0.0212   -0.0249 C   0  0  0  0  0  0  0  0  0  0  0  0
   28.4012   -0.0846    1.2152 C   0  0  0  0  0  0  0  0  0  0  0  0
   27.7275   -0.2034    2.4735 C   0  0  0  0  0  0  0  0  0  0  0  0
   28.6872   -0.2904    3.4290 C   0  0  0  0  0  0  0  0  0  0  0  0
   29.9555   -0.2170    2.7601 C   0  0  0  0  0  0  0  0  0  0  0  0
   31.1986   -0.2858    3.3931 C   0  0  0  0  0  0  0  0  0  0  0  0
   31.2072   -0.3825    4.8729 C   0  0  0  0  0  0  0  0  0  0  0  0
   31.7578   -1.4997    5.5066 C   0  0  0  0  0  0  0  0  0  0  0  0
   31.7636   -1.5875    6.8865 C   0  0  0  0  0  0  0  0  0  0  0  0
   31.2226   -0.5583    7.6595 C   0  0  0  0  0  0  0  0  0  0  0  0
   31.2546   -0.6970    9.1347 C   0  0  0  0  0  0  0  0  0  0  0  0
   30.7053    0.3409    9.7843 O   0  0  0  0  0  0  0  0  0  0  0  0
   31.7232   -1.6403    9.7197 O   0  0  0  0  0  0  0  0  0  0  0  0
   30.6730    0.5602    7.0319 C   0  0  0  0  0  0  0  0  0  0  0  0
   30.6649    0.6439    5.6506 C   0  0  0  0  0  0  0  0  0  0  0  0
   32.4344   -0.2706    2.7413 C   0  0  0  0  0  0  0  0  0  0  0  0
   33.7156   -0.2956    3.3941 C   0  0  0  0  0  0  0  0  0  0  0  0
   34.6594   -0.2566    2.4215 C   0  0  0  0  0  0  0  0  0  0  0  0
   33.9649   -0.1968    1.1671 C   0  0  0  0  0  0  0  0  0  0  0  0
   32.6173   -0.2008    1.3905 N   0  0  0  0  0  0  0  0  0  0  0  0
   29.7479   -0.1014    1.4114 N   0  0  0  0  0  0  0  0  0  0  0  0
   31.1533    0.3262   -4.9671 C   0  0  0  0  0  0  0  0  0  0  0  0
   31.6591   -0.7040   -5.7640 C   0  0  0  0  0  0  0  0  0  0  0  0
   31.6493   -0.5893   -7.1420 C   0  0  0  0  0  0  0  0  0  0  0  0
   31.1382    0.5595   -7.7490 C   0  0  0  0  0  0  0  0  0  0  0  0
   31.1507    0.6362   -9.2292 C   0  0  0  0  0  0  0  0  0  0  0  0
   30.6411    1.7797   -9.7123 O   0  0  0  0  0  0  0  0  0  0  0  0
   31.5743   -0.2297   -9.9520 O   0  0  0  0  0  0  0  0  0  0  0  0
   30.6343    1.5922   -6.9575 C   0  0  0  0  0  0  0  0  0  0  0  0
   30.6406    1.4728   -5.5789 C   0  0  0  0  0  0  0  0  0  0  0  0
   35.6663   -0.1427   -0.0803 H   0  0  0  0  0  0  0  0  0  0  0  0
   35.7031    0.0630   -2.6849 H   0  0  0  0  0  0  0  0  0  0  0  0
   33.8156    0.2675   -4.5862 H   0  0  0  0  0  0  0  0  0  0  0  0
   28.5031    0.2948   -4.5624 H   0  0  0  0  0  0  0  0  0  0  0  0
   26.6283    0.2041   -2.6422 H   0  0  0  0  0  0  0  0  0  0  0  0
   26.6568   -0.2239    2.5994 H   0  0  0  0  0  0  0  0  0  0  0  0
   28.5513   -0.4090    4.4918 H   0  0  0  0  0  0  0  0  0  0  0  0
   32.1663   -2.3062    4.9083 H   0  0  0  0  0  0  0  0  0  0  0  0
   32.1850   -2.4538    7.3846 H   0  0  0  0  0  0  0  0  0  0  0  0
   30.7669    0.1719   10.7385 H   0  0  0  0  0  0  0  0  0  0  0  0
   30.2546    1.3627    7.6277 H   0  0  0  0  0  0  0  0  0  0  0  0
   30.2494    1.5188    5.1634 H   0  0  0  0  0  0  0  0  0  0  0  0
   33.8667   -0.3257    4.4612 H   0  0  0  0  0  0  0  0  0  0  0  0
   35.7325   -0.2598    2.5300 H   0  0  0  0  0  0  0  0  0  0  0  0
   32.0455   -1.6019   -5.2952 H   0  0  0  0  0  0  0  0  0  0  0  0
   32.0349   -1.3874   -7.7669 H   0  0  0  0  0  0  0  0  0  0  0  0
   30.6866    1.7503  -10.6818 H   0  0  0  0  0  0  0  0  0  0  0  0
   30.2398    2.4871   -7.4242 H   0  0  0  0  0  0  0  0  0  0  0  0
   30.2594    2.2799   -4.9633 H   0  0  0  0  0  0  0  0  0  0  0  0
   23.7691    0.0306    0.0085 C   0  0  0  0  0  0  0  0  0  0  0  0
   22.5475    0.0279    0.0190 C   0  0  0  0  0  0  0  0  0  0  0  0
   25.1194    0.0321   -0.0037 C   0  0  0  0  0  0  0  0  0  0  0  0
   26.3410    0.0298   -0.0160 C   0  0  0  0  0  0  0  0  0  0  0  0
  2  3  4  0  0  0  0
  3  4  1  0  0  0  0
  4  5  2  0  0  0  0
  5  6  4  0  0  0  0
  1  7  1  0  0  0  0
  3  7  4  0  0  0  0
  6  7  4  0  0  0  0
  6  8  4  0  0  0  0
  8  9  4  0  0  0  0
  9 10  4  0  0  0  0
 10 11  2  0  0  0  0
  1 12  1  0  0  0  0
  9 12  4  0  0  0  0
 11 13  4  0  0  0  0
 12 13  4  0  0  0  0
 13 14  4  0  0  0  0
 14 15  4  0  0  0  0
 15 16  4  0  0  0  0
 16 17  2  0  0  0  0
 17 18  4  0  0  0  0
 18 19  4  0  0  0  0
 19 20  1  0  0  0  0
 20 21  4  0  0  0  0
 21 22  4  0  0  0  0
 22 23  4  0  0  0  0
 23 24  1  0  0  0  0
 24 25  4  0  0  0  0
 24 26  2  0  0  0  0
 23 27  4  0  0  0  0
 20 28  4  0  0  0  0
 27 28  4  0  0  0  0
 19 29  4  0  0  0  0
 29 30  4  0  0  0  0
 30 31  2  0  0  0  0
  2 32  4  0  0  0  0
 31 32  1  0  0  0  0
  1 33  1  0  0  0  0
 29 33  4  0  0  0  0
 32 33  4  0  0  0  0
  1 34  1  0  0  0  0
 15 34  4  0  0  0  0
 18 34  4  0  0  0  0
  8 35  1  0  0  0  0
 35 36  4  0  0  0  0
 36 37  4  0  0  0  0
 37 38  4  0  0  0  0
 38 39  1  0  0  0  0
 39 40  4  0  0  0  0
 39 41  2  0  0  0  0
 38 42  4  0  0  0  0
 35 43  4  0  0  0  0
 42 43  4  0  0  0  0
  2 44  1  0  0  0  0
  4 45  1  0  0  0  0
  5 46  1  0  0  0  0
 10 47  1  0  0  0  0
 11 48  1  0  0  0  0
 16 49  1  0  0  0  0
 17 50  1  0  0  0  0
 21 51  1  0  0  0  0
 22 52  1  0  0  0  0
 25 53  1  0  0  0  0
 27 54  1  0  0  0  0
 28 55  1  0  0  0  0
 30 56  1  0  0  0  0
 31 57  1  0  0  0  0
 36 58  1  0  0  0  0
 37 59  1  0  0  0  0
 40 60  1  0  0  0  0
 42 61  1  0  0  0  0
 43 62  1  0  0  0  0
 64 65  4  0  0  0  0
 65 66  1  0  0  0  0
 66 67  2  0  0  0  0
 67 68  4  0  0  0  0
 63 69  1  0  0  0  0
 65 69  4  0  0  0  0
 68 69  4  0  0  0  0
 68 70  4  0  0  0  0
 70 71  4  0  0  0  0
 71 72  4  0  0  0  0
 72 73  2  0  0  0  0
 63 74  1  0  0  0  0
 71 74  4  0  0  0  0
 73 75  4  0  0  0  0
 74 75  4  0  0  0  0
 75 76  4  0  0  0  0
 76 77  4  0  0  0  0
 77 78  4  0  0  0  0
 78 79  2  0  0  0  0
 79 80  4  0  0  0  0
 80 81  4  0  0  0  0
 81 82  1  0  0  0  0
 82 83  4  0  0  0  0
 83 84  4  0  0  0  0
 84 85  4  0  0  0  0
 85 86  1  0  0  0  0
 86 87  4  0  0  0  0
 86 88  2  0  0  0  0
 85 89  4  0  0  0  0
 82 90  4  0  0  0  0
 89 90  4  0  0  0  0
 81 91  4  0  0  0  0
 91 92  4  0  0  0  0
 92 93  2  0  0  0  0
 64 94  4  0  0  0  0
 93 94  1  0  0  0  0
 63 95  1  0  0  0  0
 91 95  4  0  0  0  0
 94 95  4  0  0  0  0
 63 96  1  0  0  0  0
 77 96  4  0  0  0  0
 80 96  4  0  0  0  0
 70 97  1  0  0  0  0
 97 98  4  0  0  0  0
 98 99  4  0  0  0  0
 99100  4  0  0  0  0
100101  1  0  0  0  0
101102  4  0  0  0  0
101103  2  0  0  0  0
100104  4  0  0  0  0
 97105  4  0  0  0  0
104105  4  0  0  0  0
 64106  1  0  0  0  0
 66107  1  0  0  0  0
 67108  1  0  0  0  0
 72109  1  0  0  0  0
 73110  1  0  0  0  0
 78111  1  0  0  0  0
 79112  1  0  0  0  0
 83113  1  0  0  0  0
 84114  1  0  0  0  0
 87115  1  0  0  0  0
 89116  1  0  0  0  0
 90117  1  0  0  0  0
 92118  1  0  0  0  0
 93119  1  0  0  0  0
 98120  1  0  0  0  0
 99121  1  0  0  0  0
102122  1  0  0  0  0
104123  1  0  0  0  0
105124  1  0  0  0  0
 14126  4  0  0  0  0
125126  3  0  0  0  0
125127  4  0  0  0  0
 76128  4  0  0  0  0
127128  3  0  0  0  0
M  END
