 xtb: 6.5.1 (b24c23e)
          07302200133D

242281  0     0  0            999 V2000
   48.7522    0.6335   -0.2253 Co  0  0  0  0  0  0  0  0  0  0  0  0
   45.7507    1.6381   -1.2851 C   0  0  0  0  0  0  0  0  0  0  0  0
   46.2995    2.2806   -0.1934 C   0  0  0  0  0  0  0  0  0  0  0  0
   45.6363    3.3057    0.5542 C   0  0  0  0  0  0  0  0  0  0  0  0
   46.3864    3.5270    1.6618 C   0  0  0  0  0  0  0  0  0  0  0  0
   47.5394    2.6865    1.5533 C   0  0  0  0  0  0  0  0  0  0  0  0
   47.4710    1.9206    0.4263 N   0  0  0  0  0  0  0  0  0  0  0  0
   48.6421    2.7580    2.4085 C   0  0  0  0  0  0  0  0  0  0  0  0
   48.5572    3.5371    3.5805 C   0  0  0  0  0  0  0  0  0  0  0  0
   48.4770    4.1865    4.6025 C   0  0  0  0  0  0  0  0  0  0  0  0
   48.3884    4.9471    5.7907 C   0  0  0  0  0  0  0  0  0  0  0  0
   49.4934    5.1021    6.6361 C   0  0  0  0  0  0  0  0  0  0  0  0
   49.3553    5.8555    7.7881 C   0  0  0  0  0  0  0  0  0  0  0  0
   48.2156    6.4463    8.1385 N   0  0  0  0  0  0  0  0  0  0  0  0
   47.1607    6.3039    7.3402 C   0  0  0  0  0  0  0  0  0  0  0  0
   47.1937    5.5724    6.1663 C   0  0  0  0  0  0  0  0  0  0  0  0
   49.8665    2.1876    2.0544 C   0  0  0  0  0  0  0  0  0  0  0  0
   51.1103    2.5182    2.6755 C   0  0  0  0  0  0  0  0  0  0  0  0
   52.0843    1.9349    1.9322 C   0  0  0  0  0  0  0  0  0  0  0  0
   50.0703    1.3634    0.9813 N   0  0  0  0  0  0  0  0  0  0  0  0
   51.4261    1.1952    0.9021 C   0  0  0  0  0  0  0  0  0  0  0  0
   52.0774    0.2979    0.0522 C   0  0  0  0  0  0  0  0  0  0  0  0
   51.3701   -0.6588   -0.6822 C   0  0  0  0  0  0  0  0  0  0  0  0
   51.9721   -1.8108   -1.2757 C   0  0  0  0  0  0  0  0  0  0  0  0
   50.9580   -2.5942   -1.7219 C   0  0  0  0  0  0  0  0  0  0  0  0
   49.7457   -1.8849   -1.4593 C   0  0  0  0  0  0  0  0  0  0  0  0
   50.0084   -0.7116   -0.8053 N   0  0  0  0  0  0  0  0  0  0  0  0
   48.4964   -2.2701   -1.9495 C   0  0  0  0  0  0  0  0  0  0  0  0
   48.3545   -3.5346   -2.5571 C   0  0  0  0  0  0  0  0  0  0  0  0
   48.2291   -4.6312   -3.0611 C   0  0  0  0  0  0  0  0  0  0  0  0
   48.0859   -5.9065   -3.6541 C   0  0  0  0  0  0  0  0  0  0  0  0
   49.1582   -6.8045   -3.7113 C   0  0  0  0  0  0  0  0  0  0  0  0
   48.9663   -8.0403   -4.3029 C   0  0  0  0  0  0  0  0  0  0  0  0
   47.8043   -8.4242   -4.8252 N   0  0  0  0  0  0  0  0  0  0  0  0
   46.7800   -7.5764   -4.7747 C   0  0  0  0  0  0  0  0  0  0  0  0
   46.8671   -6.3181   -4.2061 C   0  0  0  0  0  0  0  0  0  0  0  0
   47.4246   -1.3741   -1.9759 C   0  0  0  0  0  0  0  0  0  0  0  0
   46.2462   -1.5578   -2.7663 C   0  0  0  0  0  0  0  0  0  0  0  0
   45.5361   -0.4059   -2.6821 C   0  0  0  0  0  0  0  0  0  0  0  0
   46.2499    0.4526   -1.7861 C   0  0  0  0  0  0  0  0  0  0  0  0
   47.4125   -0.1504   -1.3725 N   0  0  0  0  0  0  0  0  0  0  0  0
   44.8158    2.0124   -1.6857 H   0  0  0  0  0  0  0  0  0  0  0  0
   44.7011    3.7616    0.2705 H   0  0  0  0  0  0  0  0  0  0  0  0
   46.2077    4.2173    2.4706 H   0  0  0  0  0  0  0  0  0  0  0  0
   50.4402    4.6375    6.3886 H   0  0  0  0  0  0  0  0  0  0  0  0
   50.1958    5.9918    8.4624 H   0  0  0  0  0  0  0  0  0  0  0  0
   46.2473    6.7996    7.6560 H   0  0  0  0  0  0  0  0  0  0  0  0
   46.3107    5.4826    5.5452 H   0  0  0  0  0  0  0  0  0  0  0  0
   51.2120    3.1465    3.5458 H   0  0  0  0  0  0  0  0  0  0  0  0
   53.1524    1.9653    2.0765 H   0  0  0  0  0  0  0  0  0  0  0  0
   53.0330   -1.9992   -1.3097 H   0  0  0  0  0  0  0  0  0  0  0  0
   51.0130   -3.5499   -2.2180 H   0  0  0  0  0  0  0  0  0  0  0  0
   50.1218   -6.5325   -3.2979 H   0  0  0  0  0  0  0  0  0  0  0  0
   49.7807   -8.7568   -4.3609 H   0  0  0  0  0  0  0  0  0  0  0  0
   45.8470   -7.9216   -5.2106 H   0  0  0  0  0  0  0  0  0  0  0  0
   46.0077   -5.6589   -4.1866 H   0  0  0  0  0  0  0  0  0  0  0  0
   46.0241   -2.4475   -3.3337 H   0  0  0  0  0  0  0  0  0  0  0  0
   44.5971   -0.1566   -3.1502 H   0  0  0  0  0  0  0  0  0  0  0  0
   88.5441    0.0206    0.8427 Co  0  0  0  0  0  0  0  0  0  0  0  0
   91.5372   -0.1558    2.3163 C   0  0  0  0  0  0  0  0  0  0  0  0
   91.0565   -1.2908    1.6937 C   0  0  0  0  0  0  0  0  0  0  0  0
   91.7868   -2.5158    1.5717 C   0  0  0  0  0  0  0  0  0  0  0  0
   91.0696   -3.3160    0.7447 C   0  0  0  0  0  0  0  0  0  0  0  0
   89.8715   -2.6041    0.4204 C   0  0  0  0  0  0  0  0  0  0  0  0
   89.8823   -1.3627    0.9864 N   0  0  0  0  0  0  0  0  0  0  0  0
   88.7763   -3.1763   -0.2329 C   0  0  0  0  0  0  0  0  0  0  0  0
   88.9089   -4.4515   -0.8190 C   0  0  0  0  0  0  0  0  0  0  0  0
   89.0258   -5.5339   -1.3554 C   0  0  0  0  0  0  0  0  0  0  0  0
   89.1618   -6.7938   -1.9818 C   0  0  0  0  0  0  0  0  0  0  0  0
   88.0631   -7.4367   -2.5642 C   0  0  0  0  0  0  0  0  0  0  0  0
   88.2500   -8.6668   -3.1691 C   0  0  0  0  0  0  0  0  0  0  0  0
   89.4311   -9.2768   -3.2269 N   0  0  0  0  0  0  0  0  0  0  0  0
   90.4804   -8.6723   -2.6756 C   0  0  0  0  0  0  0  0  0  0  0  0
   90.4004   -7.4427   -2.0466 C   0  0  0  0  0  0  0  0  0  0  0  0
   87.5199   -2.5682   -0.2001 C   0  0  0  0  0  0  0  0  0  0  0  0
   86.2966   -3.2421   -0.5011 C   0  0  0  0  0  0  0  0  0  0  0  0
   85.2926   -2.3828   -0.1924 C   0  0  0  0  0  0  0  0  0  0  0  0
   87.2714   -1.2967    0.2406 N   0  0  0  0  0  0  0  0  0  0  0  0
   85.9105   -1.1648    0.2288 C   0  0  0  0  0  0  0  0  0  0  0  0
   85.2176    0.0408    0.3881 C   0  0  0  0  0  0  0  0  0  0  0  0
   85.8896    1.2672    0.4416 C   0  0  0  0  0  0  0  0  0  0  0  0
   85.2559    2.5332    0.2507 C   0  0  0  0  0  0  0  0  0  0  0  0
   86.2438    3.4635    0.2289 C   0  0  0  0  0  0  0  0  0  0  0  0
   87.4680    2.7672    0.4724 C   0  0  0  0  0  0  0  0  0  0  0  0
   87.2410    1.4200    0.5725 N   0  0  0  0  0  0  0  0  0  0  0  0
   88.6806    3.3989    0.7513 C   0  0  0  0  0  0  0  0  0  0  0  0
   88.7840    4.7961    0.5936 C   0  0  0  0  0  0  0  0  0  0  0  0
   88.8846    5.9957    0.4402 C   0  0  0  0  0  0  0  0  0  0  0  0
   88.9994    7.3942    0.2688 C   0  0  0  0  0  0  0  0  0  0  0  0
   87.9597    8.1453   -0.2917 C   0  0  0  0  0  0  0  0  0  0  0  0
   88.1236    9.5114   -0.4374 C   0  0  0  0  0  0  0  0  0  0  0  0
   89.2277   10.1551   -0.0677 N   0  0  0  0  0  0  0  0  0  0  0  0
   90.2201    9.4483    0.4672 C   0  0  0  0  0  0  0  0  0  0  0  0
   90.1574    8.0791    0.6553 C   0  0  0  0  0  0  0  0  0  0  0  0
   89.7515    2.6964    1.3131 C   0  0  0  0  0  0  0  0  0  0  0  0
   90.8774    3.3169    1.9410 C   0  0  0  0  0  0  0  0  0  0  0  0
   91.6156    2.3214    2.4910 C   0  0  0  0  0  0  0  0  0  0  0  0
   90.9725    1.0914    2.1402 C   0  0  0  0  0  0  0  0  0  0  0  0
   89.8182    1.3405    1.4381 N   0  0  0  0  0  0  0  0  0  0  0  0
   92.4700   -0.2253    2.8637 H   0  0  0  0  0  0  0  0  0  0  0  0
   92.7391   -2.7095    2.0392 H   0  0  0  0  0  0  0  0  0  0  0  0
   91.2979   -4.3138    0.4056 H   0  0  0  0  0  0  0  0  0  0  0  0
   87.0834   -6.9750   -2.5398 H   0  0  0  0  0  0  0  0  0  0  0  0
   87.4154   -9.1884   -3.6286 H   0  0  0  0  0  0  0  0  0  0  0  0
   91.4288   -9.1976   -2.7419 H   0  0  0  0  0  0  0  0  0  0  0  0
   91.2806   -6.9852   -1.6112 H   0  0  0  0  0  0  0  0  0  0  0  0
   86.2286   -4.2537   -0.8678 H   0  0  0  0  0  0  0  0  0  0  0  0
   84.2284   -2.5342   -0.2747 H   0  0  0  0  0  0  0  0  0  0  0  0
   84.1946    2.6734    0.1221 H   0  0  0  0  0  0  0  0  0  0  0  0
   86.1617    4.5306    0.0991 H   0  0  0  0  0  0  0  0  0  0  0  0
   87.0431    7.6612   -0.6062 H   0  0  0  0  0  0  0  0  0  0  0  0
   87.3337   10.1187   -0.8698 H   0  0  0  0  0  0  0  0  0  0  0  0
   91.1063   10.0053    0.7575 H   0  0  0  0  0  0  0  0  0  0  0  0
   90.9893    7.5419    1.0943 H   0  0  0  0  0  0  0  0  0  0  0  0
   91.0495    4.3810    1.9731 H   0  0  0  0  0  0  0  0  0  0  0  0
   92.5324    2.3933    3.0542 H   0  0  0  0  0  0  0  0  0  0  0  0
   54.7021    0.2012   -0.0196 C   0  0  0  0  0  0  0  0  0  0  0  0
   53.4835    0.2537    0.0363 C   0  0  0  0  0  0  0  0  0  0  0  0
   56.0475    0.0975   -0.1061 C   0  0  0  0  0  0  0  0  0  0  0  0
   57.2564   -0.0407   -0.2080 C   0  0  0  0  0  0  0  0  0  0  0  0
   67.9722   -0.3222   -0.1451 C   0  0  0  0  0  0  0  0  0  0  0  0
   66.7514   -0.3679   -0.2115 C   0  0  0  0  0  0  0  0  0  0  0  0
   69.3191   -0.3317   -0.1261 C   0  0  0  0  0  0  0  0  0  0  0  0
   70.5406   -0.3952   -0.1562 C   0  0  0  0  0  0  0  0  0  0  0  0
   81.2521   -0.1069    0.1887 C   0  0  0  0  0  0  0  0  0  0  0  0
   80.0406   -0.2227    0.0742 C   0  0  0  0  0  0  0  0  0  0  0  0
   82.5951   -0.0250    0.2868 C   0  0  0  0  0  0  0  0  0  0  0  0
   83.8156    0.0238    0.3360 C   0  0  0  0  0  0  0  0  0  0  0  0
   61.9894   -0.6865   -0.6062 Co  0  0  0  0  0  0  0  0  0  0  0  0
   58.6405   -0.2524   -0.3501 C   0  0  0  0  0  0  0  0  0  0  0  0
   59.3349    0.4395   -1.3438 C   0  0  0  0  0  0  0  0  0  0  0  0
   58.6974    1.2821   -2.3059 C   0  0  0  0  0  0  0  0  0  0  0  0
   59.6268    1.5596   -3.2540 C   0  0  0  0  0  0  0  0  0  0  0  0
   60.8375    0.9271   -2.8365 C   0  0  0  0  0  0  0  0  0  0  0  0
   60.6545    0.2533   -1.6612 N   0  0  0  0  0  0  0  0  0  0  0  0
   62.0495    1.0432   -3.5217 C   0  0  0  0  0  0  0  0  0  0  0  0
   62.0592    1.6638   -4.7884 C   0  0  0  0  0  0  0  0  0  0  0  0
   62.0602    2.1825   -5.8855 C   0  0  0  0  0  0  0  0  0  0  0  0
   62.0649    2.7941   -7.1601 C   0  0  0  0  0  0  0  0  0  0  0  0
   63.2548    2.9688   -7.8763 C   0  0  0  0  0  0  0  0  0  0  0  0
   63.2057    3.5752   -9.1188 C   0  0  0  0  0  0  0  0  0  0  0  0
   62.0754    4.0052   -9.6738 N   0  0  0  0  0  0  0  0  0  0  0  0
   60.9400    3.8423   -8.9996 C   0  0  0  0  0  0  0  0  0  0  0  0
   60.8804    3.2485   -7.7513 C   0  0  0  0  0  0  0  0  0  0  0  0
   63.2588    0.6633   -2.9425 C   0  0  0  0  0  0  0  0  0  0  0  0
   64.5355    1.0118   -3.4816 C   0  0  0  0  0  0  0  0  0  0  0  0
   65.4559    0.6802   -2.5423 C   0  0  0  0  0  0  0  0  0  0  0  0
   63.3973    0.0699   -1.7143 N   0  0  0  0  0  0  0  0  0  0  0  0
   64.7390    0.0847   -1.4595 C   0  0  0  0  0  0  0  0  0  0  0  0
   65.3602   -0.4790   -0.3388 C   0  0  0  0  0  0  0  0  0  0  0  0
   64.6593   -1.2915    0.5589 C   0  0  0  0  0  0  0  0  0  0  0  0
   65.2989   -2.0909    1.5558 C   0  0  0  0  0  0  0  0  0  0  0  0
   64.3510   -2.9261    2.0494 C   0  0  0  0  0  0  0  0  0  0  0  0
   63.1298   -2.5951    1.3866 C   0  0  0  0  0  0  0  0  0  0  0  0
   63.3259   -1.5852    0.4830 N   0  0  0  0  0  0  0  0  0  0  0  0
   61.9033   -3.1931    1.6757 C   0  0  0  0  0  0  0  0  0  0  0  0
   61.8710   -4.3032    2.5456 C   0  0  0  0  0  0  0  0  0  0  0  0
   61.8414   -5.2651    3.2847 C   0  0  0  0  0  0  0  0  0  0  0  0
   61.7999   -6.3802    4.1528 C   0  0  0  0  0  0  0  0  0  0  0  0
   60.5881   -7.0035    4.4726 C   0  0  0  0  0  0  0  0  0  0  0  0
   60.5994   -8.0901    5.3290 C   0  0  0  0  0  0  0  0  0  0  0  0
   61.7128   -8.5777    5.8701 N   0  0  0  0  0  0  0  0  0  0  0  0
   62.8688   -7.9904    5.5713 C   0  0  0  0  0  0  0  0  0  0  0  0
   62.9665   -6.8994    4.7261 C   0  0  0  0  0  0  0  0  0  0  0  0
   60.6982   -2.6565    1.2200 C   0  0  0  0  0  0  0  0  0  0  0  0
   59.4196   -3.0671    1.7080 C   0  0  0  0  0  0  0  0  0  0  0  0
   58.5166   -2.1792    1.2227 C   0  0  0  0  0  0  0  0  0  0  0  0
   59.2437   -1.2642    0.4014 C   0  0  0  0  0  0  0  0  0  0  0  0
   60.5774   -1.5689    0.3974 N   0  0  0  0  0  0  0  0  0  0  0  0
   57.6639    1.5861   -2.2643 H   0  0  0  0  0  0  0  0  0  0  0  0
   59.5224    2.1532   -4.1479 H   0  0  0  0  0  0  0  0  0  0  0  0
   64.1973    2.6332   -7.4607 H   0  0  0  0  0  0  0  0  0  0  0  0
   64.1132    3.7240   -9.6968 H   0  0  0  0  0  0  0  0  0  0  0  0
   60.0368    4.2044   -9.4822 H   0  0  0  0  0  0  0  0  0  0  0  0
   59.9340    3.1357   -7.2365 H   0  0  0  0  0  0  0  0  0  0  0  0
   64.6883    1.4800   -4.4406 H   0  0  0  0  0  0  0  0  0  0  0  0
   66.5265    0.8037   -2.5745 H   0  0  0  0  0  0  0  0  0  0  0  0
   66.3446   -2.0311    1.8111 H   0  0  0  0  0  0  0  0  0  0  0  0
   64.4500   -3.6866    2.8072 H   0  0  0  0  0  0  0  0  0  0  0  0
   59.6582   -6.6380    4.0540 H   0  0  0  0  0  0  0  0  0  0  0  0
   59.6741   -8.5933    5.5943 H   0  0  0  0  0  0  0  0  0  0  0  0
   63.7571   -8.4139    6.0309 H   0  0  0  0  0  0  0  0  0  0  0  0
   63.9285   -6.4509    4.5098 H   0  0  0  0  0  0  0  0  0  0  0  0
   59.2547   -3.9076    2.3628 H   0  0  0  0  0  0  0  0  0  0  0  0
   57.4510   -2.1456    1.3825 H   0  0  0  0  0  0  0  0  0  0  0  0
   75.3072   -0.7405   -0.4220 Co  0  0  0  0  0  0  0  0  0  0  0  0
   71.9334   -0.5167   -0.2464 C   0  0  0  0  0  0  0  0  0  0  0  0
   72.5871    0.0429   -1.3514 C   0  0  0  0  0  0  0  0  0  0  0  0
   71.9060    0.6404   -2.4558 C   0  0  0  0  0  0  0  0  0  0  0  0
   72.8602    1.0110   -3.3460 C   0  0  0  0  0  0  0  0  0  0  0  0
   74.1187    0.6816   -2.7550 C   0  0  0  0  0  0  0  0  0  0  0  0
   73.9378    0.0531   -1.5498 N   0  0  0  0  0  0  0  0  0  0  0  0
   75.3428    1.1289   -3.2498 C   0  0  0  0  0  0  0  0  0  0  0  0
   75.3807    1.8099   -4.4843 C   0  0  0  0  0  0  0  0  0  0  0  0
   75.4264    2.3773   -5.5560 C   0  0  0  0  0  0  0  0  0  0  0  0
   75.4847    3.0426   -6.8021 C   0  0  0  0  0  0  0  0  0  0  0  0
   76.6907    3.5582   -7.2910 C   0  0  0  0  0  0  0  0  0  0  0  0
   76.6970    4.1987   -8.5174 C   0  0  0  0  0  0  0  0  0  0  0  0
   75.6058    4.3511   -9.2634 N   0  0  0  0  0  0  0  0  0  0  0  0
   74.4556    3.8637   -8.8057 C   0  0  0  0  0  0  0  0  0  0  0  0
   74.3416    3.2074   -7.5929 C   0  0  0  0  0  0  0  0  0  0  0  0
   76.5220    1.0092   -2.5105 C   0  0  0  0  0  0  0  0  0  0  0  0
   77.7355    1.6921   -2.8274 C   0  0  0  0  0  0  0  0  0  0  0  0
   78.6369    1.3434   -1.8752 C   0  0  0  0  0  0  0  0  0  0  0  0
   76.6731    0.2458   -1.3864 N   0  0  0  0  0  0  0  0  0  0  0  0
   77.9801    0.4112   -1.0140 C   0  0  0  0  0  0  0  0  0  0  0  0
   78.6583   -0.3954   -0.0958 C   0  0  0  0  0  0  0  0  0  0  0  0
   78.0292   -1.4674    0.5471 C   0  0  0  0  0  0  0  0  0  0  0  0
   78.7271   -2.4676    1.2903 C   0  0  0  0  0  0  0  0  0  0  0  0
   77.7910   -3.3389    1.7427 C   0  0  0  0  0  0  0  0  0  0  0  0
   76.5247   -2.8382    1.3093 C   0  0  0  0  0  0  0  0  0  0  0  0
   76.6853   -1.7140    0.5423 N   0  0  0  0  0  0  0  0  0  0  0  0
   75.3031   -3.3200    1.7799 C   0  0  0  0  0  0  0  0  0  0  0  0
   75.2925   -4.4431    2.6335 C   0  0  0  0  0  0  0  0  0  0  0  0
   75.2805   -5.4099    3.3667 C   0  0  0  0  0  0  0  0  0  0  0  0
   75.2683   -6.5291    4.2304 C   0  0  0  0  0  0  0  0  0  0  0  0
   74.0774   -6.9896    4.8041 C   0  0  0  0  0  0  0  0  0  0  0  0
   74.1206   -8.0849    5.6484 C   0  0  0  0  0  0  0  0  0  0  0  0
   75.2458   -8.7297    5.9456 N   0  0  0  0  0  0  0  0  0  0  0  0
   76.3819   -8.2988    5.4036 C   0  0  0  0  0  0  0  0  0  0  0  0
   76.4473   -7.2134    4.5480 C   0  0  0  0  0  0  0  0  0  0  0  0
   74.1007   -2.6611    1.5177 C   0  0  0  0  0  0  0  0  0  0  0  0
   72.8690   -2.9559    2.1777 C   0  0  0  0  0  0  0  0  0  0  0  0
   71.9439   -2.1017    1.6726 C   0  0  0  0  0  0  0  0  0  0  0  0
   72.6088   -1.3232    0.6759 C   0  0  0  0  0  0  0  0  0  0  0  0
   73.9368   -1.6461    0.6146 N   0  0  0  0  0  0  0  0  0  0  0  0
   70.8356    0.7424   -2.5336 H   0  0  0  0  0  0  0  0  0  0  0  0
   72.7403    1.4959   -4.3014 H   0  0  0  0  0  0  0  0  0  0  0  0
   77.6026    3.4553   -6.7153 H   0  0  0  0  0  0  0  0  0  0  0  0
   77.6181    4.6086   -8.9214 H   0  0  0  0  0  0  0  0  0  0  0  0
   73.5856    4.0058   -9.4402 H   0  0  0  0  0  0  0  0  0  0  0  0
   73.3850    2.8253   -7.2578 H   0  0  0  0  0  0  0  0  0  0  0  0
   77.8620    2.3610   -3.6634 H   0  0  0  0  0  0  0  0  0  0  0  0
   79.6646    1.6528   -1.7732 H   0  0  0  0  0  0  0  0  0  0  0  0
   79.7958   -2.4935    1.4295 H   0  0  0  0  0  0  0  0  0  0  0  0
   77.9270   -4.2237    2.3435 H   0  0  0  0  0  0  0  0  0  0  0  0
   73.1390   -6.4930    4.5889 H   0  0  0  0  0  0  0  0  0  0  0  0
   73.2123   -8.4637    6.1080 H   0  0  0  0  0  0  0  0  0  0  0  0
   77.2808   -8.8480    5.6682 H   0  0  0  0  0  0  0  0  0  0  0  0
   77.3942   -6.8948    4.1292 H   0  0  0  0  0  0  0  0  0  0  0  0
   72.7462   -3.7111    2.9373 H   0  0  0  0  0  0  0  0  0  0  0  0
   70.8979   -2.0169    1.9194 H   0  0  0  0  0  0  0  0  0  0  0  0
  2  3  4  0  0  0  0
  3  4  1  0  0  0  0
  4  5  2  0  0  0  0
  5  6  4  0  0  0  0
  1  7  1  0  0  0  0
  3  7  4  0  0  0  0
  6  7  4  0  0  0  0
  6  8  4  0  0  0  0
  8  9  1  0  0  0  0
  9 10  3  0  0  0  0
 10 11  1  0  0  0  0
 11 12  4  0  0  0  0
 12 13  4  0  0  0  0
 13 14  4  0  0  0  0
 14 15  4  0  0  0  0
 11 16  4  0  0  0  0
 15 16  4  0  0  0  0
  8 17  4  0  0  0  0
 17 18  4  0  0  0  0
 18 19  2  0  0  0  0
  1 20  1  0  0  0  0
 17 20  4  0  0  0  0
 19 21  4  0  0  0  0
 20 21  4  0  0  0  0
 21 22  4  0  0  0  0
 22 23  4  0  0  0  0
 23 24  4  0  0  0  0
 24 25  2  0  0  0  0
 25 26  4  0  0  0  0
  1 27  1  0  0  0  0
 23 27  4  0  0  0  0
 26 27  4  0  0  0  0
 26 28  4  0  0  0  0
 28 29  1  0  0  0  0
 29 30  3  0  0  0  0
 30 31  1  0  0  0  0
 31 32  4  0  0  0  0
 32 33  4  0  0  0  0
 33 34  4  0  0  0  0
 34 35  4  0  0  0  0
 31 36  4  0  0  0  0
 35 36  4  0  0  0  0
 28 37  4  0  0  0  0
 37 38  4  0  0  0  0
 38 39  2  0  0  0  0
  2 40  4  0  0  0  0
 39 40  1  0  0  0  0
  1 41  1  0  0  0  0
 37 41  4  0  0  0  0
 40 41  4  0  0  0  0
  2 42  1  0  0  0  0
  4 43  1  0  0  0  0
  5 44  1  0  0  0  0
 12 45  1  0  0  0  0
 13 46  1  0  0  0  0
 15 47  1  0  0  0  0
 16 48  1  0  0  0  0
 18 49  1  0  0  0  0
 19 50  1  0  0  0  0
 24 51  1  0  0  0  0
 25 52  1  0  0  0  0
 32 53  1  0  0  0  0
 33 54  1  0  0  0  0
 35 55  1  0  0  0  0
 36 56  1  0  0  0  0
 38 57  1  0  0  0  0
 39 58  1  0  0  0  0
 60 61  4  0  0  0  0
 61 62  4  0  0  0  0
 62 63  2  0  0  0  0
 63 64  4  0  0  0  0
 59 65  1  0  0  0  0
 61 65  4  0  0  0  0
 64 65  4  0  0  0  0
 64 66  4  0  0  0  0
 66 67  1  0  0  0  0
 67 68  3  0  0  0  0
 68 69  1  0  0  0  0
 69 70  4  0  0  0  0
 70 71  4  0  0  0  0
 71 72  4  0  0  0  0
 72 73  4  0  0  0  0
 69 74  4  0  0  0  0
 73 74  4  0  0  0  0
 66 75  4  0  0  0  0
 75 76  4  0  0  0  0
 76 77  2  0  0  0  0
 59 78  1  0  0  0  0
 75 78  4  0  0  0  0
 77 79  4  0  0  0  0
 78 79  4  0  0  0  0
 79 80  4  0  0  0  0
 80 81  4  0  0  0  0
 81 82  4  0  0  0  0
 82 83  2  0  0  0  0
 83 84  4  0  0  0  0
 59 85  1  0  0  0  0
 81 85  4  0  0  0  0
 84 85  4  0  0  0  0
 84 86  4  0  0  0  0
 86 87  1  0  0  0  0
 87 88  3  0  0  0  0
 88 89  1  0  0  0  0
 89 90  4  0  0  0  0
 90 91  4  0  0  0  0
 91 92  4  0  0  0  0
 92 93  4  0  0  0  0
 89 94  4  0  0  0  0
 93 94  4  0  0  0  0
 86 95  4  0  0  0  0
 95 96  4  0  0  0  0
 96 97  2  0  0  0  0
 60 98  4  0  0  0  0
 97 98  1  0  0  0  0
 59 99  1  0  0  0  0
 95 99  4  0  0  0  0
 98 99  4  0  0  0  0
 60100  1  0  0  0  0
 62101  1  0  0  0  0
 63102  1  0  0  0  0
 70103  1  0  0  0  0
 71104  1  0  0  0  0
 73105  1  0  0  0  0
 74106  1  0  0  0  0
 76107  1  0  0  0  0
 77108  1  0  0  0  0
 82109  1  0  0  0  0
 83110  1  0  0  0  0
 90111  1  0  0  0  0
 91112  1  0  0  0  0
 93113  1  0  0  0  0
 94114  1  0  0  0  0
 96115  1  0  0  0  0
 97116  1  0  0  0  0
 22118  1  0  0  0  0
117118  3  0  0  0  0
117119  4  0  0  0  0
119120  3  0  0  0  0
121122  3  0  0  0  0
121123  4  0  0  0  0
123124  3  0  0  0  0
125126  3  0  0  0  0
125127  4  0  0  0  0
 80128  4  0  0  0  0
127128  3  0  0  0  0
120130  1  0  0  0  0
130131  4  0  0  0  0
131132  4  0  0  0  0
132133  2  0  0  0  0
133134  4  0  0  0  0
129135  1  0  0  0  0
131135  4  0  0  0  0
134135  4  0  0  0  0
134136  4  0  0  0  0
136137  1  0  0  0  0
137138  3  0  0  0  0
138139  1  0  0  0  0
139140  4  0  0  0  0
140141  4  0  0  0  0
141142  4  0  0  0  0
142143  4  0  0  0  0
139144  4  0  0  0  0
143144  4  0  0  0  0
136145  4  0  0  0  0
145146  4  0  0  0  0
146147  2  0  0  0  0
129148  1  0  0  0  0
145148  4  0  0  0  0
147149  4  0  0  0  0
148149  4  0  0  0  0
122150  4  0  0  0  0
149150  4  0  0  0  0
150151  4  0  0  0  0
151152  4  0  0  0  0
152153  2  0  0  0  0
153154  4  0  0  0  0
129155  1  0  0  0  0
151155  4  0  0  0  0
154155  4  0  0  0  0
154156  4  0  0  0  0
156157  1  0  0  0  0
157158  3  0  0  0  0
158159  1  0  0  0  0
159160  4  0  0  0  0
160161  4  0  0  0  0
161162  4  0  0  0  0
162163  4  0  0  0  0
159164  4  0  0  0  0
163164  4  0  0  0  0
156165  4  0  0  0  0
165166  4  0  0  0  0
166167  2  0  0  0  0
130168  4  0  0  0  0
167168  4  0  0  0  0
129169  1  0  0  0  0
165169  4  0  0  0  0
168169  4  0  0  0  0
132170  1  0  0  0  0
133171  1  0  0  0  0
140172  1  0  0  0  0
141173  1  0  0  0  0
143174  1  0  0  0  0
144175  1  0  0  0  0
146176  1  0  0  0  0
147177  1  0  0  0  0
152178  1  0  0  0  0
153179  1  0  0  0  0
160180  1  0  0  0  0
161181  1  0  0  0  0
163182  1  0  0  0  0
164183  1  0  0  0  0
166184  1  0  0  0  0
167185  1  0  0  0  0
124187  4  0  0  0  0
187188  4  0  0  0  0
188189  4  0  0  0  0
189190  2  0  0  0  0
190191  4  0  0  0  0
186192  1  0  0  0  0
188192  4  0  0  0  0
191192  4  0  0  0  0
191193  4  0  0  0  0
193194  1  0  0  0  0
194195  3  0  0  0  0
195196  1  0  0  0  0
196197  4  0  0  0  0
197198  4  0  0  0  0
198199  4  0  0  0  0
199200  4  0  0  0  0
196201  4  0  0  0  0
200201  4  0  0  0  0
193202  4  0  0  0  0
202203  4  0  0  0  0
203204  2  0  0  0  0
186205  1  0  0  0  0
202205  4  0  0  0  0
204206  4  0  0  0  0
205206  4  0  0  0  0
126207  4  0  0  0  0
206207  4  0  0  0  0
207208  4  0  0  0  0
208209  4  0  0  0  0
209210  2  0  0  0  0
210211  4  0  0  0  0
186212  1  0  0  0  0
208212  4  0  0  0  0
211212  4  0  0  0  0
211213  4  0  0  0  0
213214  1  0  0  0  0
214215  3  0  0  0  0
215216  1  0  0  0  0
216217  4  0  0  0  0
217218  4  0  0  0  0
218219  4  0  0  0  0
219220  4  0  0  0  0
216221  4  0  0  0  0
220221  4  0  0  0  0
213222  4  0  0  0  0
222223  4  0  0  0  0
223224  2  0  0  0  0
187225  4  0  0  0  0
224225  4  0  0  0  0
186226  1  0  0  0  0
222226  4  0  0  0  0
225226  4  0  0  0  0
189227  1  0  0  0  0
190228  1  0  0  0  0
197229  1  0  0  0  0
198230  1  0  0  0  0
200231  1  0  0  0  0
201232  1  0  0  0  0
203233  1  0  0  0  0
204234  1  0  0  0  0
209235  1  0  0  0  0
210236  1  0  0  0  0
217237  1  0  0  0  0
218238  1  0  0  0  0
220239  1  0  0  0  0
221240  1  0  0  0  0
223241  1  0  0  0  0
224242  1  0  0  0  0
M  END
