 xtb: 6.5.1 (b24c23e)
          07302216103D

136155  0     0  0            999 V2000
   14.4377    0.0238    0.0392 Zn  0  0  0  0  0  0  0  0  0  0  0  0
   11.0301    0.1329    0.0869 C   0  0  0  0  0  0  0  0  0  0  0  0
   11.6560   -0.1843    1.2862 C   0  0  0  0  0  0  0  0  0  0  0  0
   10.9777   -0.4926    2.5143 C   0  0  0  0  0  0  0  0  0  0  0  0
   11.9332   -0.7419    3.4439 C   0  0  0  0  0  0  0  0  0  0  0  0
   13.2085   -0.5776    2.7967 C   0  0  0  0  0  0  0  0  0  0  0  0
   13.0049   -0.2503    1.4886 N   0  0  0  0  0  0  0  0  0  0  0  0
   14.4585   -0.7505    3.4037 C   0  0  0  0  0  0  0  0  0  0  0  0
   14.4678   -1.0875    4.8485 C   0  0  0  0  0  0  0  0  0  0  0  0
   13.9299   -0.2001    5.7843 C   0  0  0  0  0  0  0  0  0  0  0  0
   13.9388   -0.5096    7.1343 C   0  0  0  0  0  0  0  0  0  0  0  0
   14.4858   -1.7175    7.5360 C   0  0  0  0  0  0  0  0  0  0  0  0
   14.5057   -2.1131    9.2433 S   0  0  0  0  0  0  0  0  0  0  0  0
   14.4386   -0.9245   10.0413 O   0  0  0  0  0  0  0  0  0  0  0  0
   13.0683   -2.8664    9.3274 O   0  0  0  0  0  0  0  0  0  0  0  0
   15.5273   -3.0758    9.5352 O   0  0  0  0  0  0  0  0  0  0  0  0
   15.0285   -2.6174    6.6330 C   0  0  0  0  0  0  0  0  0  0  0  0
   15.0183   -2.2951    5.2861 C   0  0  0  0  0  0  0  0  0  0  0  0
   15.7002   -0.6338    2.7688 C   0  0  0  0  0  0  0  0  0  0  0  0
   16.9786   -0.7554    3.4141 C   0  0  0  0  0  0  0  0  0  0  0  0
   17.9265   -0.5649    2.4615 C   0  0  0  0  0  0  0  0  0  0  0  0
   15.8959   -0.3574    1.4425 N   0  0  0  0  0  0  0  0  0  0  0  0
   17.2384   -0.3172    1.2287 C   0  0  0  0  0  0  0  0  0  0  0  0
   17.8718   -0.0760   -0.0072 C   0  0  0  0  0  0  0  0  0  0  0  0
   17.2203    0.1978   -1.2267 C   0  0  0  0  0  0  0  0  0  0  0  0
   17.8884    0.4047   -2.4779 C   0  0  0  0  0  0  0  0  0  0  0  0
   16.9277    0.6481   -3.4054 C   0  0  0  0  0  0  0  0  0  0  0  0
   15.6622    0.6024   -2.7257 C   0  0  0  0  0  0  0  0  0  0  0  0
   15.8771    0.3149   -1.4047 N   0  0  0  0  0  0  0  0  0  0  0  0
   14.4130    0.7962   -3.3265 C   0  0  0  0  0  0  0  0  0  0  0  0
   14.4030    1.1346   -4.7709 C   0  0  0  0  0  0  0  0  0  0  0  0
   13.7771    0.2889   -5.6904 C   0  0  0  0  0  0  0  0  0  0  0  0
   13.7627    0.6026   -7.0394 C   0  0  0  0  0  0  0  0  0  0  0  0
   14.3788    1.7711   -7.4573 C   0  0  0  0  0  0  0  0  0  0  0  0
   14.3506    2.1817   -9.1617 S   0  0  0  0  0  0  0  0  0  0  0  0
   14.5041    3.5946   -9.3563 O   0  0  0  0  0  0  0  0  0  0  0  0
   15.7448    1.4797   -9.6128 O   0  0  0  0  0  0  0  0  0  0  0  0
   13.2664    1.5110   -9.8143 O   0  0  0  0  0  0  0  0  0  0  0  0
   15.0041    2.6321   -6.5698 C   0  0  0  0  0  0  0  0  0  0  0  0
   15.0149    2.3066   -5.2236 C   0  0  0  0  0  0  0  0  0  0  0  0
   13.1719    0.7031   -2.6845 C   0  0  0  0  0  0  0  0  0  0  0  0
   11.8921    0.9516   -3.2949 C   0  0  0  0  0  0  0  0  0  0  0  0
   10.9493    0.7639   -2.3384 C   0  0  0  0  0  0  0  0  0  0  0  0
   11.6407    0.4099   -1.1302 C   0  0  0  0  0  0  0  0  0  0  0  0
   12.9847    0.3876   -1.3710 N   0  0  0  0  0  0  0  0  0  0  0  0
    9.9453    0.1686    0.1026 H   0  0  0  0  0  0  0  0  0  0  0  0
    9.9063   -0.5197    2.6359 H   0  0  0  0  0  0  0  0  0  0  0  0
   11.7914   -1.0237    4.4749 H   0  0  0  0  0  0  0  0  0  0  0  0
   13.5184    0.7453    5.4505 H   0  0  0  0  0  0  0  0  0  0  0  0
   13.5347    0.1759    7.8686 H   0  0  0  0  0  0  0  0  0  0  0  0
   12.9328   -3.2292   10.2111 H   0  0  0  0  0  0  0  0  0  0  0  0
   15.4531   -3.5502    6.9823 H   0  0  0  0  0  0  0  0  0  0  0  0
   15.4279   -2.9898    4.5621 H   0  0  0  0  0  0  0  0  0  0  0  0
   17.1305   -0.9472    4.4639 H   0  0  0  0  0  0  0  0  0  0  0  0
   18.9984   -0.5824    2.5776 H   0  0  0  0  0  0  0  0  0  0  0  0
   18.9560    0.3597   -2.6224 H   0  0  0  0  0  0  0  0  0  0  0  0
   17.0621    0.8296   -4.4595 H   0  0  0  0  0  0  0  0  0  0  0  0
   13.3110   -0.6264   -5.3448 H   0  0  0  0  0  0  0  0  0  0  0  0
   13.2793   -0.0452   -7.7598 H   0  0  0  0  0  0  0  0  0  0  0  0
   16.0742    1.8884  -10.4228 H   0  0  0  0  0  0  0  0  0  0  0  0
   15.4655    3.5435   -6.9288 H   0  0  0  0  0  0  0  0  0  0  0  0
   15.4866    2.9734   -4.5113 H   0  0  0  0  0  0  0  0  0  0  0  0
   11.7395    1.2445   -4.3213 H   0  0  0  0  0  0  0  0  0  0  0  0
    9.8790    0.8618   -2.4292 H   0  0  0  0  0  0  0  0  0  0  0  0
   33.0478    0.0371   -0.0289 Zn  0  0  0  0  0  0  0  0  0  0  0  0
   36.4553    0.1561   -0.0329 C   0  0  0  0  0  0  0  0  0  0  0  0
   35.8295    0.3042   -1.2647 C   0  0  0  0  0  0  0  0  0  0  0  0
   36.5077    0.4712   -2.5198 C   0  0  0  0  0  0  0  0  0  0  0  0
   35.5523    0.5829   -3.4757 C   0  0  0  0  0  0  0  0  0  0  0  0
   34.2770    0.4967   -2.8136 C   0  0  0  0  0  0  0  0  0  0  0  0
   34.4806    0.3177   -1.4771 N   0  0  0  0  0  0  0  0  0  0  0  0
   33.0270    0.5603   -3.4416 C   0  0  0  0  0  0  0  0  0  0  0  0
   33.0177    0.7807   -4.9086 C   0  0  0  0  0  0  0  0  0  0  0  0
   33.5557    1.9509   -5.4506 C   0  0  0  0  0  0  0  0  0  0  0  0
   33.5468    2.1620   -6.8195 C   0  0  0  0  0  0  0  0  0  0  0  0
   32.9998    1.1878   -7.6389 C   0  0  0  0  0  0  0  0  0  0  0  0
   32.9797    1.4507   -9.3716 S   0  0  0  0  0  0  0  0  0  0  0  0
   33.0468    2.8501   -9.6741 O   0  0  0  0  0  0  0  0  0  0  0  0
   34.4170    0.7818   -9.7283 O   0  0  0  0  0  0  0  0  0  0  0  0
   31.9579    0.6640   -9.9982 O   0  0  0  0  0  0  0  0  0  0  0  0
   32.4572    0.0180   -7.1321 C   0  0  0  0  0  0  0  0  0  0  0  0
   32.4674   -0.1799   -5.7614 C   0  0  0  0  0  0  0  0  0  0  0  0
   31.7853    0.4343   -2.8084 C   0  0  0  0  0  0  0  0  0  0  0  0
   30.5069    0.5598   -3.4530 C   0  0  0  0  0  0  0  0  0  0  0  0
   29.5589    0.3849   -2.4975 C   0  0  0  0  0  0  0  0  0  0  0  0
   31.5896    0.2014   -1.4739 N   0  0  0  0  0  0  0  0  0  0  0  0
   30.2471    0.1599   -1.2603 C   0  0  0  0  0  0  0  0  0  0  0  0
   29.6137   -0.0724   -0.0227 C   0  0  0  0  0  0  0  0  0  0  0  0
   30.2652   -0.2686    1.2117 C   0  0  0  0  0  0  0  0  0  0  0  0
   29.5971   -0.5389    2.4508 C   0  0  0  0  0  0  0  0  0  0  0  0
   30.5578   -0.6553    3.4026 C   0  0  0  0  0  0  0  0  0  0  0  0
   31.8233   -0.4465    2.7541 C   0  0  0  0  0  0  0  0  0  0  0  0
   31.6084   -0.2256    1.4204 N   0  0  0  0  0  0  0  0  0  0  0  0
   33.0724   -0.4882    3.3840 C   0  0  0  0  0  0  0  0  0  0  0  0
   33.0824   -0.7073    4.8512 C   0  0  0  0  0  0  0  0  0  0  0  0
   33.7081   -1.8329    5.3934 C   0  0  0  0  0  0  0  0  0  0  0  0
   33.7223   -2.0396    6.7630 C   0  0  0  0  0  0  0  0  0  0  0  0
   33.1064   -1.1080    7.5828 C   0  0  0  0  0  0  0  0  0  0  0  0
   33.1344   -1.3558    9.3184 S   0  0  0  0  0  0  0  0  0  0  0  0
   32.9808   -0.1145   10.0209 O   0  0  0  0  0  0  0  0  0  0  0  0
   31.7401   -2.1746    9.4781 O   0  0  0  0  0  0  0  0  0  0  0  0
   34.2184   -2.2201    9.6775 O   0  0  0  0  0  0  0  0  0  0  0  0
   32.4814    0.0201    7.0760 C   0  0  0  0  0  0  0  0  0  0  0  0
   32.4706    0.2147    5.7048 C   0  0  0  0  0  0  0  0  0  0  0  0
   34.3135   -0.3375    2.7530 C   0  0  0  0  0  0  0  0  0  0  0  0
   35.5934   -0.3320    3.4121 C   0  0  0  0  0  0  0  0  0  0  0  0
   36.5361   -0.1531    2.4539 C   0  0  0  0  0  0  0  0  0  0  0  0
   35.8447   -0.0359    1.2003 C   0  0  0  0  0  0  0  0  0  0  0  0
   34.5008   -0.1456    1.4159 N   0  0  0  0  0  0  0  0  0  0  0  0
   37.5402    0.1950   -0.0344 H   0  0  0  0  0  0  0  0  0  0  0  0
   37.5792    0.4907   -2.6428 H   0  0  0  0  0  0  0  0  0  0  0  0
   35.6940    0.7017   -4.5380 H   0  0  0  0  0  0  0  0  0  0  0  0
   33.9671    2.7063   -4.7912 H   0  0  0  0  0  0  0  0  0  0  0  0
   33.9508    3.0702   -7.2487 H   0  0  0  0  0  0  0  0  0  0  0  0
   34.5523    0.7713  -10.6836 H   0  0  0  0  0  0  0  0  0  0  0  0
   32.0327   -0.7199   -7.8012 H   0  0  0  0  0  0  0  0  0  0  0  0
   32.0577   -1.0929   -5.3452 H   0  0  0  0  0  0  0  0  0  0  0  0
   30.3549    0.7692   -4.4995 H   0  0  0  0  0  0  0  0  0  0  0  0
   28.4870    0.4116   -2.6117 H   0  0  0  0  0  0  0  0  0  0  0  0
   28.5295   -0.6342    2.5684 H   0  0  0  0  0  0  0  0  0  0  0  0
   30.4234   -0.8762    4.4492 H   0  0  0  0  0  0  0  0  0  0  0  0
   34.1741   -2.5560    4.7342 H   0  0  0  0  0  0  0  0  0  0  0  0
   34.2055   -2.9078    7.1932 H   0  0  0  0  0  0  0  0  0  0  0  0
   31.4109   -2.0945   10.3820 H   0  0  0  0  0  0  0  0  0  0  0  0
   32.0201    0.7346    7.7462 H   0  0  0  0  0  0  0  0  0  0  0  0
   31.9991    1.0976    5.2891 H   0  0  0  0  0  0  0  0  0  0  0  0
   35.7459   -0.4389    4.4741 H   0  0  0  0  0  0  0  0  0  0  0  0
   37.6065   -0.0956    2.5744 H   0  0  0  0  0  0  0  0  0  0  0  0
   19.2764   -0.1063   -0.0223 C   0  0  0  0  0  0  0  0  0  0  0  0
   20.5009   -0.1263   -0.0278 C   0  0  0  0  0  0  0  0  0  0  0  0
   21.8432   -0.1407   -0.0321 C   0  0  0  0  0  0  0  0  0  0  0  0
   23.0739   -0.1480   -0.0305 C   0  0  0  0  0  0  0  0  0  0  0  0
   24.4116   -0.1488   -0.0276 C   0  0  0  0  0  0  0  0  0  0  0  0
   25.6423   -0.1428   -0.0240 C   0  0  0  0  0  0  0  0  0  0  0  0
   26.9846   -0.1272   -0.0214 C   0  0  0  0  0  0  0  0  0  0  0  0
   28.2091   -0.1064   -0.0196 C   0  0  0  0  0  0  0  0  0  0  0  0
  2  3  4  0  0  0  0
  3  4  4  0  0  0  0
  4  5  2  0  0  0  0
  5  6  4  0  0  0  0
  1  7  1  0  0  0  0
  3  7  4  0  0  0  0
  6  7  4  0  0  0  0
  6  8  4  0  0  0  0
  8  9  1  0  0  0  0
  9 10  4  0  0  0  0
 10 11  4  0  0  0  0
 11 12  4  0  0  0  0
 12 13  1  0  0  0  0
 13 14  2  0  0  0  0
 13 15  1  0  0  0  0
 13 16  2  0  0  0  0
 12 17  4  0  0  0  0
  9 18  4  0  0  0  0
 17 18  4  0  0  0  0
  8 19  4  0  0  0  0
 19 20  4  0  0  0  0
 20 21  2  0  0  0  0
  1 22  1  0  0  0  0
 19 22  4  0  0  0  0
 21 23  4  0  0  0  0
 22 23  4  0  0  0  0
 23 24  4  0  0  0  0
 24 25  4  0  0  0  0
 25 26  4  0  0  0  0
 26 27  2  0  0  0  0
 27 28  4  0  0  0  0
  1 29  1  0  0  0  0
 25 29  4  0  0  0  0
 28 29  4  0  0  0  0
 28 30  4  0  0  0  0
 30 31  1  0  0  0  0
 31 32  4  0  0  0  0
 32 33  4  0  0  0  0
 33 34  4  0  0  0  0
 34 35  1  0  0  0  0
 35 36  2  0  0  0  0
 35 37  1  0  0  0  0
 35 38  2  0  0  0  0
 34 39  4  0  0  0  0
 31 40  4  0  0  0  0
 39 40  4  0  0  0  0
 30 41  4  0  0  0  0
 41 42  4  0  0  0  0
 42 43  2  0  0  0  0
  2 44  4  0  0  0  0
 43 44  1  0  0  0  0
  1 45  1  0  0  0  0
 41 45  4  0  0  0  0
 44 45  4  0  0  0  0
  2 46  1  0  0  0  0
  4 47  1  0  0  0  0
  5 48  1  0  0  0  0
 10 49  1  0  0  0  0
 11 50  1  0  0  0  0
 15 51  1  0  0  0  0
 17 52  1  0  0  0  0
 18 53  1  0  0  0  0
 20 54  1  0  0  0  0
 21 55  1  0  0  0  0
 26 56  1  0  0  0  0
 27 57  1  0  0  0  0
 32 58  1  0  0  0  0
 33 59  1  0  0  0  0
 37 60  1  0  0  0  0
 39 61  1  0  0  0  0
 40 62  1  0  0  0  0
 42 63  1  0  0  0  0
 43 64  1  0  0  0  0
 66 67  4  0  0  0  0
 67 68  4  0  0  0  0
 68 69  2  0  0  0  0
 69 70  4  0  0  0  0
 65 71  1  0  0  0  0
 67 71  4  0  0  0  0
 70 71  4  0  0  0  0
 70 72  4  0  0  0  0
 72 73  1  0  0  0  0
 73 74  4  0  0  0  0
 74 75  4  0  0  0  0
 75 76  4  0  0  0  0
 76 77  1  0  0  0  0
 77 78  2  0  0  0  0
 77 79  1  0  0  0  0
 77 80  2  0  0  0  0
 76 81  4  0  0  0  0
 73 82  4  0  0  0  0
 81 82  4  0  0  0  0
 72 83  4  0  0  0  0
 83 84  4  0  0  0  0
 84 85  2  0  0  0  0
 65 86  1  0  0  0  0
 83 86  4  0  0  0  0
 85 87  4  0  0  0  0
 86 87  4  0  0  0  0
 87 88  4  0  0  0  0
 88 89  4  0  0  0  0
 89 90  4  0  0  0  0
 90 91  2  0  0  0  0
 91 92  4  0  0  0  0
 65 93  1  0  0  0  0
 89 93  4  0  0  0  0
 92 93  4  0  0  0  0
 92 94  4  0  0  0  0
 94 95  1  0  0  0  0
 95 96  4  0  0  0  0
 96 97  4  0  0  0  0
 97 98  4  0  0  0  0
 98 99  1  0  0  0  0
 99100  2  0  0  0  0
 99101  1  0  0  0  0
 99102  2  0  0  0  0
 98103  4  0  0  0  0
 95104  4  0  0  0  0
103104  4  0  0  0  0
 94105  4  0  0  0  0
105106  4  0  0  0  0
106107  2  0  0  0  0
 66108  4  0  0  0  0
107108  1  0  0  0  0
 65109  1  0  0  0  0
105109  4  0  0  0  0
108109  4  0  0  0  0
 66110  1  0  0  0  0
 68111  1  0  0  0  0
 69112  1  0  0  0  0
 74113  1  0  0  0  0
 75114  1  0  0  0  0
 79115  1  0  0  0  0
 81116  1  0  0  0  0
 82117  1  0  0  0  0
 84118  1  0  0  0  0
 85119  1  0  0  0  0
 90120  1  0  0  0  0
 91121  1  0  0  0  0
 96122  1  0  0  0  0
 97123  1  0  0  0  0
101124  1  0  0  0  0
103125  1  0  0  0  0
104126  1  0  0  0  0
106127  1  0  0  0  0
107128  1  0  0  0  0
 24129  4  0  0  0  0
129130  3  0  0  0  0
130131  4  0  0  0  0
131132  3  0  0  0  0
132133  4  0  0  0  0
133134  3  0  0  0  0
134135  4  0  0  0  0
 88136  4  0  0  0  0
135136  3  0  0  0  0
M  END
