 xtb: 6.5.1 (b24c23e)
          07292222563D

114133  0     0  0            999 V2000
   11.1135   -0.0394   -0.0071 Co  0  0  0  0  0  0  0  0  0  0  0  0
    7.7389   -0.0691   -0.0962 C   0  0  0  0  0  0  0  0  0  0  0  0
    8.4066   -1.2682   -0.2194 C   0  0  0  0  0  0  0  0  0  0  0  0
    7.7490   -2.5315   -0.3623 C   0  0  0  0  0  0  0  0  0  0  0  0
    8.7028   -3.4824   -0.2307 C   0  0  0  0  0  0  0  0  0  0  0  0
    9.9452   -2.7982   -0.0198 C   0  0  0  0  0  0  0  0  0  0  0  0
    9.7596   -1.4398   -0.0630 N   0  0  0  0  0  0  0  0  0  0  0  0
   11.1286   -3.4281    0.3403 C   0  0  0  0  0  0  0  0  0  0  0  0
   11.1314   -4.8985    0.5237 C   0  0  0  0  0  0  0  0  0  0  0  0
   11.3481   -5.4680    1.7773 C   0  0  0  0  0  0  0  0  0  0  0  0
   11.3383   -6.8485    1.9016 C   0  0  0  0  0  0  0  0  0  0  0  0
   11.1347   -7.6666    0.8742 N   0  0  0  0  0  0  0  0  0  0  0  0
   10.9303   -7.1307   -0.3248 C   0  0  0  0  0  0  0  0  0  0  0  0
   10.9174   -5.7628   -0.5486 C   0  0  0  0  0  0  0  0  0  0  0  0
   12.3092   -2.7270    0.5305 C   0  0  0  0  0  0  0  0  0  0  0  0
   13.5601   -3.3424    0.8586 C   0  0  0  0  0  0  0  0  0  0  0  0
   14.5111   -2.3862    0.7331 C   0  0  0  0  0  0  0  0  0  0  0  0
   12.4912   -1.3916    0.2487 N   0  0  0  0  0  0  0  0  0  0  0  0
   13.8401   -1.1913    0.3300 C   0  0  0  0  0  0  0  0  0  0  0  0
   14.5098   -0.0252   -0.0507 C   0  0  0  0  0  0  0  0  0  0  0  0
   13.8221    1.1406   -0.3968 C   0  0  0  0  0  0  0  0  0  0  0  0
   14.4725    2.3462   -0.8022 C   0  0  0  0  0  0  0  0  0  0  0  0
   13.5136    3.3006   -0.8705 C   0  0  0  0  0  0  0  0  0  0  0  0
   12.2807    2.6742   -0.4988 C   0  0  0  0  0  0  0  0  0  0  0  0
   12.4742    1.3305   -0.2721 N   0  0  0  0  0  0  0  0  0  0  0  0
   11.0888    3.3567   -0.3067 C   0  0  0  0  0  0  0  0  0  0  0  0
   11.0784    4.8313   -0.4277 C   0  0  0  0  0  0  0  0  0  0  0  0
   10.2742    5.4748   -1.3679 C   0  0  0  0  0  0  0  0  0  0  0  0
   10.3013    6.8582   -1.4463 C   0  0  0  0  0  0  0  0  0  0  0  0
   11.0596    7.6136   -0.6583 N   0  0  0  0  0  0  0  0  0  0  0  0
   11.8274    7.0084    0.2421 C   0  0  0  0  0  0  0  0  0  0  0  0
   11.8733    5.6314    0.3924 C   0  0  0  0  0  0  0  0  0  0  0  0
    9.9024    2.6954   -0.0182 C   0  0  0  0  0  0  0  0  0  0  0  0
    8.6499    3.3523    0.2169 C   0  0  0  0  0  0  0  0  0  0  0  0
    7.7034    2.3853    0.2605 C   0  0  0  0  0  0  0  0  0  0  0  0
    8.3810    1.1392    0.0703 C   0  0  0  0  0  0  0  0  0  0  0  0
    9.7344    1.3346   -0.0418 N   0  0  0  0  0  0  0  0  0  0  0  0
    6.6556   -0.0786   -0.1162 H   0  0  0  0  0  0  0  0  0  0  0  0
    6.6890   -2.6537   -0.5183 H   0  0  0  0  0  0  0  0  0  0  0  0
    8.5864   -4.5537   -0.2527 H   0  0  0  0  0  0  0  0  0  0  0  0
   11.5076   -4.8389    2.6448 H   0  0  0  0  0  0  0  0  0  0  0  0
   11.5006   -7.3165    2.8681 H   0  0  0  0  0  0  0  0  0  0  0  0
   10.7697   -7.8252   -1.1442 H   0  0  0  0  0  0  0  0  0  0  0  0
   10.7583   -5.3705   -1.5459 H   0  0  0  0  0  0  0  0  0  0  0  0
   13.6858   -4.3789    1.1256 H   0  0  0  0  0  0  0  0  0  0  0  0
   15.5757   -2.4696    0.8813 H   0  0  0  0  0  0  0  0  0  0  0  0
   15.5292    2.4358   -0.9963 H   0  0  0  0  0  0  0  0  0  0  0  0
   13.6197    4.3372   -1.1456 H   0  0  0  0  0  0  0  0  0  0  0  0
    9.6495    4.8989   -2.0402 H   0  0  0  0  0  0  0  0  0  0  0  0
    9.6875    7.3816   -2.1735 H   0  0  0  0  0  0  0  0  0  0  0  0
   12.4338    7.6525    0.8721 H   0  0  0  0  0  0  0  0  0  0  0  0
   12.5060    5.1821    1.1485 H   0  0  0  0  0  0  0  0  0  0  0  0
    8.5247    4.4171    0.3283 H   0  0  0  0  0  0  0  0  0  0  0  0
    6.6394    2.4863    0.4043 H   0  0  0  0  0  0  0  0  0  0  0  0
   27.0765    0.0346   -0.0186 Co  0  0  0  0  0  0  0  0  0  0  0  0
   30.4513    0.0383   -0.1062 C   0  0  0  0  0  0  0  0  0  0  0  0
   29.7840    1.1494   -0.5742 C   0  0  0  0  0  0  0  0  0  0  0  0
   30.4423    2.3167   -1.0773 C   0  0  0  0  0  0  0  0  0  0  0  0
   29.4883    3.2643   -1.2301 C   0  0  0  0  0  0  0  0  0  0  0  0
   28.2454    2.6706   -0.8317 C   0  0  0  0  0  0  0  0  0  0  0  0
   28.4308    1.3585   -0.4773 N   0  0  0  0  0  0  0  0  0  0  0  0
   27.0614    3.3777   -0.6728 C   0  0  0  0  0  0  0  0  0  0  0  0
   27.0585    4.8378   -0.9252 C   0  0  0  0  0  0  0  0  0  0  0  0
   26.8396    5.7472    0.1081 C   0  0  0  0  0  0  0  0  0  0  0  0
   26.8491    7.1042   -0.1744 C   0  0  0  0  0  0  0  0  0  0  0  0
   27.0545    7.5882   -1.3951 N   0  0  0  0  0  0  0  0  0  0  0  0
   27.2611    6.7269   -2.3859 C   0  0  0  0  0  0  0  0  0  0  0  0
   27.2745    5.3530   -2.2022 C   0  0  0  0  0  0  0  0  0  0  0  0
   25.8804    2.7621   -0.2885 C   0  0  0  0  0  0  0  0  0  0  0  0
   24.6293    3.4462   -0.1552 C   0  0  0  0  0  0  0  0  0  0  0  0
   23.6783    2.4949    0.0031 C   0  0  0  0  0  0  0  0  0  0  0  0
   25.6985    1.4025   -0.1691 N   0  0  0  0  0  0  0  0  0  0  0  0
   24.3495    1.2344   -0.0337 C   0  0  0  0  0  0  0  0  0  0  0  0
   23.6802    0.0078   -0.0586 C   0  0  0  0  0  0  0  0  0  0  0  0
   24.3683   -1.2080   -0.0511 C   0  0  0  0  0  0  0  0  0  0  0  0
   23.7181   -2.4795   -0.0899 C   0  0  0  0  0  0  0  0  0  0  0  0
   24.6771   -3.4125    0.1217 C   0  0  0  0  0  0  0  0  0  0  0  0
   25.9097   -2.7051    0.2968 C   0  0  0  0  0  0  0  0  0  0  0  0
   25.7162   -1.3534    0.1241 N   0  0  0  0  0  0  0  0  0  0  0  0
   27.1011   -3.3023    0.6804 C   0  0  0  0  0  0  0  0  0  0  0  0
   27.1117   -4.7484    0.9930 C   0  0  0  0  0  0  0  0  0  0  0  0
   27.9174   -5.6370    0.2817 C   0  0  0  0  0  0  0  0  0  0  0  0
   27.8908   -6.9834    0.6090 C   0  0  0  0  0  0  0  0  0  0  0  0
   27.1315   -7.4775    1.5816 N   0  0  0  0  0  0  0  0  0  0  0  0
   26.3621   -6.6371    2.2659 C   0  0  0  0  0  0  0  0  0  0  0  0
   26.3156   -5.2759    2.0092 C   0  0  0  0  0  0  0  0  0  0  0  0
   28.2872   -2.5852    0.7669 C   0  0  0  0  0  0  0  0  0  0  0  0
   29.5390   -3.1450    1.1853 C   0  0  0  0  0  0  0  0  0  0  0  0
   30.4856   -2.2066    0.9483 C   0  0  0  0  0  0  0  0  0  0  0  0
   29.8087   -1.0697    0.4031 C   0  0  0  0  0  0  0  0  0  0  0  0
   28.4555   -1.2898    0.3496 N   0  0  0  0  0  0  0  0  0  0  0  0
   31.5347    0.0420   -0.1260 H   0  0  0  0  0  0  0  0  0  0  0  0
   31.5026    2.3886   -1.2600 H   0  0  0  0  0  0  0  0  0  0  0  0
   29.6050    4.2829   -1.5627 H   0  0  0  0  0  0  0  0  0  0  0  0
   26.6786    5.3975    1.1209 H   0  0  0  0  0  0  0  0  0  0  0  0
   26.6850    7.8330    0.6139 H   0  0  0  0  0  0  0  0  0  0  0  0
   27.4231    7.1530   -3.3716 H   0  0  0  0  0  0  0  0  0  0  0  0
   27.4355    4.6876   -3.0419 H   0  0  0  0  0  0  0  0  0  0  0  0
   24.5034    4.5155   -0.2023 H   0  0  0  0  0  0  0  0  0  0  0  0
   22.6136    2.6179    0.1197 H   0  0  0  0  0  0  0  0  0  0  0  0
   22.6616   -2.6215   -0.2504 H   0  0  0  0  0  0  0  0  0  0  0  0
   24.5712   -4.4844    0.1587 H   0  0  0  0  0  0  0  0  0  0  0  0
   28.5431   -5.2810   -0.5281 H   0  0  0  0  0  0  0  0  0  0  0  0
   28.5059   -7.6952    0.0663 H   0  0  0  0  0  0  0  0  0  0  0  0
   25.7551   -7.0706    3.0553 H   0  0  0  0  0  0  0  0  0  0  0  0
   25.6817   -4.6266    2.6011 H   0  0  0  0  0  0  0  0  0  0  0  0
   29.6637   -4.1316    1.6013 H   0  0  0  0  0  0  0  0  0  0  0  0
   31.5492   -2.2611    1.1176 H   0  0  0  0  0  0  0  0  0  0  0  0
   19.7095   -0.0084   -0.0974 C   0  0  0  0  0  0  0  0  0  0  0  0
   18.4805   -0.0121   -0.0958 C   0  0  0  0  0  0  0  0  0  0  0  0
   17.1369   -0.0157   -0.0889 C   0  0  0  0  0  0  0  0  0  0  0  0
   15.9126   -0.0220   -0.0724 C   0  0  0  0  0  0  0  0  0  0  0  0
   21.0531   -0.0041   -0.0904 C   0  0  0  0  0  0  0  0  0  0  0  0
   22.2774   -0.0021   -0.0785 C   0  0  0  0  0  0  0  0  0  0  0  0
  2  3  4  0  0  0  0
  3  4  1  0  0  0  0
  4  5  2  0  0  0  0
  5  6  4  0  0  0  0
  1  7  1  0  0  0  0
  3  7  4  0  0  0  0
  6  7  4  0  0  0  0
  6  8  4  0  0  0  0
  8  9  1  0  0  0  0
  9 10  4  0  0  0  0
 10 11  4  0  0  0  0
 11 12  4  0  0  0  0
 12 13  4  0  0  0  0
  9 14  4  0  0  0  0
 13 14  4  0  0  0  0
  8 15  4  0  0  0  0
 15 16  4  0  0  0  0
 16 17  2  0  0  0  0
  1 18  1  0  0  0  0
 15 18  4  0  0  0  0
 17 19  4  0  0  0  0
 18 19  4  0  0  0  0
 19 20  4  0  0  0  0
 20 21  4  0  0  0  0
 21 22  4  0  0  0  0
 22 23  2  0  0  0  0
 23 24  4  0  0  0  0
  1 25  1  0  0  0  0
 21 25  4  0  0  0  0
 24 25  4  0  0  0  0
 24 26  4  0  0  0  0
 26 27  1  0  0  0  0
 27 28  4  0  0  0  0
 28 29  4  0  0  0  0
 29 30  4  0  0  0  0
 30 31  4  0  0  0  0
 27 32  4  0  0  0  0
 31 32  4  0  0  0  0
 26 33  4  0  0  0  0
 33 34  4  0  0  0  0
 34 35  2  0  0  0  0
  2 36  4  0  0  0  0
 35 36  1  0  0  0  0
  1 37  1  0  0  0  0
 33 37  4  0  0  0  0
 36 37  4  0  0  0  0
  2 38  1  0  0  0  0
  4 39  1  0  0  0  0
  5 40  1  0  0  0  0
 10 41  1  0  0  0  0
 11 42  1  0  0  0  0
 13 43  1  0  0  0  0
 14 44  1  0  0  0  0
 16 45  1  0  0  0  0
 17 46  1  0  0  0  0
 22 47  1  0  0  0  0
 23 48  1  0  0  0  0
 28 49  1  0  0  0  0
 29 50  1  0  0  0  0
 31 51  1  0  0  0  0
 32 52  1  0  0  0  0
 34 53  1  0  0  0  0
 35 54  1  0  0  0  0
 56 57  4  0  0  0  0
 57 58  1  0  0  0  0
 58 59  2  0  0  0  0
 59 60  4  0  0  0  0
 55 61  1  0  0  0  0
 57 61  4  0  0  0  0
 60 61  4  0  0  0  0
 60 62  4  0  0  0  0
 62 63  1  0  0  0  0
 63 64  4  0  0  0  0
 64 65  4  0  0  0  0
 65 66  4  0  0  0  0
 66 67  4  0  0  0  0
 63 68  4  0  0  0  0
 67 68  4  0  0  0  0
 62 69  4  0  0  0  0
 69 70  4  0  0  0  0
 70 71  2  0  0  0  0
 55 72  1  0  0  0  0
 69 72  4  0  0  0  0
 71 73  4  0  0  0  0
 72 73  4  0  0  0  0
 73 74  4  0  0  0  0
 74 75  4  0  0  0  0
 75 76  4  0  0  0  0
 76 77  2  0  0  0  0
 77 78  4  0  0  0  0
 55 79  1  0  0  0  0
 75 79  4  0  0  0  0
 78 79  4  0  0  0  0
 78 80  4  0  0  0  0
 80 81  1  0  0  0  0
 81 82  4  0  0  0  0
 82 83  4  0  0  0  0
 83 84  4  0  0  0  0
 84 85  4  0  0  0  0
 81 86  4  0  0  0  0
 85 86  4  0  0  0  0
 80 87  4  0  0  0  0
 87 88  4  0  0  0  0
 88 89  2  0  0  0  0
 56 90  4  0  0  0  0
 89 90  1  0  0  0  0
 55 91  1  0  0  0  0
 87 91  4  0  0  0  0
 90 91  4  0  0  0  0
 56 92  1  0  0  0  0
 58 93  1  0  0  0  0
 59 94  1  0  0  0  0
 64 95  1  0  0  0  0
 65 96  1  0  0  0  0
 67 97  1  0  0  0  0
 68 98  1  0  0  0  0
 70 99  1  0  0  0  0
 71100  1  0  0  0  0
 76101  1  0  0  0  0
 77102  1  0  0  0  0
 82103  1  0  0  0  0
 83104  1  0  0  0  0
 85105  1  0  0  0  0
 86106  1  0  0  0  0
 88107  1  0  0  0  0
 89108  1  0  0  0  0
109110  3  0  0  0  0
110111  4  0  0  0  0
 20112  4  0  0  0  0
111112  3  0  0  0  0
109113  4  0  0  0  0
 74114  4  0  0  0  0
113114  3  0  0  0  0
M  END
