201

Fe 38.919631 1.974918 1.619341
C 35.168540 0.081434 -0.040299
C 35.818172 0.934635 0.756809
C 35.153465 1.853275 1.673149
C 36.083671 2.566433 2.280414
C 37.395902 2.145444 1.770299
N 37.234104 1.101267 0.809408
C 38.581315 2.675732 2.136879
C 38.615177 3.789216 3.112770
C 38.127376 5.056322 2.762100
C 38.175575 6.108175 3.680808
C 38.716632 5.913724 4.961589
N 38.753087 7.017045 5.885584
C 39.294499 6.919500 7.237105
C 39.212052 4.641445 5.307077
C 39.162451 3.589676 4.387693
C 39.880453 2.197213 1.595266
C 41.157256 2.891296 1.803082
C 42.101709 2.181560 1.219812
N 40.036612 1.107575 0.907759
C 41.434719 1.027041 0.630563
C 42.041501 0.015669 -0.011663
C 41.290881 -1.117807 -0.596156
C 41.832614 -2.285233 -0.919545
C 40.800548 -3.076526 -1.560964
C 39.697588 -2.337452 -1.591259
N 39.917255 -1.064447 -0.981578
C 38.427034 -2.753129 -2.238880
C 38.465587 -3.854155 -3.232092
C 39.211303 -3.710779 -4.410755
C 39.268335 -4.751579 -5.342104
C 38.582447 -5.958342 -5.104885
N 38.621189 -7.048690 -6.044069
C 39.357913 -7.003044 -7.302786
C 37.844878 -6.099446 -3.918913
C 37.789173 -5.058721 -2.988067
C 37.258270 -2.150858 -1.946503
C 35.957894 -2.447628 -2.545053
C 35.085596 -1.671373 -1.931488
C 35.820349 -0.870669 -0.953573
N 37.087230 -1.141687 -0.953464
H 34.084941 0.084412 -0.021830
H 34.088025 1.942719 1.842233
H 35.884306 3.325439 3.025496
H 37.711647 5.228369 1.776783
H 37.791792 7.078735 3.392520
H 38.373507 7.942788 5.582370
H 40.366813 6.634700 7.195330
H 38.724498 6.165330 7.819365
H 39.208527 7.901136 7.749177
H 39.638564 4.453549 6.282837
H 39.549549 2.617902 4.669200
H 41.317112 3.820199 2.334582
H 43.153884 2.432509 1.200506
H 42.859342 -2.587990 -0.763310
H 40.919867 -4.074092 -1.963475
H 39.746365 -2.790052 -4.609354
H 39.849689 -4.606558 -6.242285
H 38.096172 -7.925214 -5.822571
H 38.969542 -6.179939 -7.938692
H 39.231378 -7.961951 -7.848416
H 40.439181 -6.849547 -7.102783
H 37.313617 -7.020298 -3.713484
H 37.222095 -5.192139 -2.074883
H 35.727579 -3.153255 -3.332330
H 34.022368 -1.639640 -2.130177
Fe 60.087447 -2.003542 -1.567819
C 63.838538 0.029265 -0.082092
C 63.188905 -0.934804 -0.740807
C 63.853612 -2.029511 -1.437365
C 62.923407 -2.777754 -2.000835
C 61.611176 -2.188071 -1.701296
N 61.772974 -1.022495 -0.891946
C 60.425763 -2.661526 -2.138820
C 60.391900 -3.856864 -3.012534
C 60.879702 -3.791126 -4.325624
C 60.831503 -4.917211 -5.151670
C 60.290446 -6.124702 -4.682439
N 60.253991 -7.267175 -5.557560
C 59.712579 -8.564847 -5.167464
C 59.795025 -6.184254 -3.365431
C 59.844627 -5.057528 -2.539615
C 59.126624 -2.028552 -1.790011
C 57.849822 -2.382809 -2.422024
C 56.905368 -1.658729 -1.856659
N 58.970466 -1.119853 -0.876642
C 57.572358 -0.831764 -0.858532
C 56.965577 0.015669 -0.011663
C 57.716196 0.833401 0.966965
C 57.174463 1.403730 2.035697
C 58.206529 2.202353 2.667966
C 59.309490 2.070652 1.940090
N 59.089822 1.197894 0.830792
C 60.580043 2.793369 2.204440
C 60.541491 4.002892 3.062219
C 59.795774 5.121869 2.665114
C 59.738742 6.257879 3.477615
C 60.424630 6.289690 4.707061
N 60.385889 7.444157 5.566207
C 59.649164 8.662585 5.247009
C 61.162200 5.163085 5.103544
C 61.217904 4.027582 4.291005
C 61.748807 2.376621 1.680478
C 63.049184 3.025505 1.839494
C 63.921482 2.257346 1.215823
C 63.186729 1.128280 0.647794
N 61.919848 1.187311 0.912305
H 64.922137 0.010590 -0.080969
H 64.919053 -2.214037 -1.487761
H 63.122771 -3.670498 -2.578975
H 61.295431 -2.867092 -4.708522
H 61.215286 -4.847645 -6.161749
H 60.633570 -7.173265 -6.527158
H 58.640265 -8.461935 -4.898642
H 60.282580 -8.968517 -4.304418
H 59.798551 -9.278772 -6.013713
H 59.368513 -7.095503 -2.969153
H 59.457529 -5.120211 -1.529832
H 57.689965 -3.104188 -3.212571
H 55.853194 -1.694645 -2.105774
H 56.147736 1.317321 2.365249
H 58.087211 2.812833 3.553667
H 59.260713 5.114781 1.723238
H 59.157389 7.104726 3.139669
H 60.910906 7.419254 6.469941
H 60.037536 9.103568 4.304984
H 59.775700 9.404300 6.063754
H 58.567896 8.433909 5.140851
H 61.693461 5.163535 6.047032
H 61.784983 3.165514 4.620465
H 63.279499 3.947778 2.356335
H 64.984709 2.444323 1.141501
C 43.795521 0.015669 -0.011663
C 45.017439 0.015669 -0.011663
C 53.989639 0.015669 -0.011663
C 55.211557 0.015669 -0.011663
Fe 49.833306 -2.036681 -1.583314
C 46.069653 -0.032784 0.024403
C 46.726616 -0.991363 -0.654007
C 46.084928 -2.097285 -1.368663
C 47.023898 -2.807735 -1.961088
C 48.323095 -2.200381 -1.657740
N 48.144752 -1.051893 -0.825755
C 49.506774 -2.642419 -2.129298
C 49.533181 -3.814491 -3.028975
C 49.617679 -5.107974 -2.497966
C 49.647584 -6.215776 -3.349427
C 49.596140 -6.047669 -4.742780
N 49.627985 -7.208482 -5.593831
C 49.578168 -7.141065 -7.050576
C 49.514585 -4.743774 -5.270639
C 49.483245 -3.636616 -4.417829
C 50.807199 -2.011874 -1.792712
C 52.081628 -2.384544 -2.419397
C 53.034693 -1.678789 -1.845724
N 50.973306 -1.116055 -0.870143
C 52.375710 -0.850831 -0.843663
C 52.990840 -0.032784 0.024403
C 52.242099 0.769580 1.015291
C 52.779319 1.311414 2.101009
C 51.746290 2.100155 2.743396
C 50.648359 1.988899 2.004464
N 50.870980 1.141969 0.877821
C 49.388894 2.728619 2.258893
C 49.447086 3.954914 3.090950
C 48.787291 4.008776 4.327525
C 48.857597 5.161162 5.115838
C 49.595558 6.278638 4.679988
N 49.685236 7.481217 5.466528
C 49.040908 7.645118 6.765470
C 50.261483 6.214317 3.446055
C 50.192020 5.061251 2.659668
C 48.214271 2.322200 1.739928
C 46.934264 3.009394 1.876320
C 46.045523 2.252830 1.266198
C 46.746302 1.080408 0.730775
N 48.014528 1.116517 1.001549
H 45.027237 -2.317603 -1.425975
H 46.839167 -3.685483 -2.566944
H 49.659378 -5.257383 -1.425709
H 49.711018 -7.208532 -2.921326
H 49.690146 -8.155168 -5.155522
H 48.635041 -6.652839 -7.375009
H 50.450788 -6.570498 -7.432804
H 49.611264 -8.166376 -7.476402
H 49.475100 -4.573484 -6.337889
H 49.421922 -2.640228 -4.838876
H 52.235135 -3.110616 -3.206649
H 54.088112 -1.734313 -2.085374
H 53.803073 1.211994 2.435891
H 51.863105 2.697059 3.638535
H 48.221216 3.155855 4.681802
H 48.336092 5.170661 6.062958
H 50.237776 8.287097 5.095326
H 49.429750 6.888207 7.478541
H 49.257225 8.656902 7.169123
H 47.941523 7.535028 6.658489
H 50.837632 7.060146 3.092018
H 50.714606 5.032237 1.711236
H 46.728211 3.952577 2.364869
H 44.992431 2.483686 1.180805
