 xtb: 6.5.1 (b24c23e)
          07292215453D

201230  0     0  0            999 V2000
   38.6522    0.0722    0.0166 Fe  0  0  0  0  0  0  0  0  0  0  0  0
   35.2655    0.1289   -0.0212 C   0  0  0  0  0  0  0  0  0  0  0  0
   35.9145    0.9056    0.9171 C   0  0  0  0  0  0  0  0  0  0  0  0
   35.2415    1.7050    1.8951 C   0  0  0  0  0  0  0  0  0  0  0  0
   36.1975    2.4207    2.5348 C   0  0  0  0  0  0  0  0  0  0  0  0
   37.4516    2.0651    1.9367 C   0  0  0  0  0  0  0  0  0  0  0  0
   37.2696    1.1016    0.9837 N   0  0  0  0  0  0  0  0  0  0  0  0
   38.6665    2.6729    2.2469 C   0  0  0  0  0  0  0  0  0  0  0  0
   38.6697    3.8064    3.1964 C   0  0  0  0  0  0  0  0  0  0  0  0
   37.9134    4.9538    2.9380 C   0  0  0  0  0  0  0  0  0  0  0  0
   37.9215    6.0189    3.8178 C   0  0  0  0  0  0  0  0  0  0  0  0
   38.6761    5.9629    4.9966 C   0  0  0  0  0  0  0  0  0  0  0  0
   38.6892    7.0743    5.8248 N   0  0  0  0  0  0  0  0  0  0  0  0
   39.0333    6.9249    7.2322 C   0  0  0  0  0  0  0  0  0  0  0  0
   39.4362    4.8191    5.2589 C   0  0  0  0  0  0  0  0  0  0  0  0
   39.4310    3.7612    4.3662 C   0  0  0  0  0  0  0  0  0  0  0  0
   39.8718    2.2613    1.6931 C   0  0  0  0  0  0  0  0  0  0  0  0
   41.1279    2.9028    1.9431 C   0  0  0  0  0  0  0  0  0  0  0  0
   42.0766    2.1541    1.3304 C   0  0  0  0  0  0  0  0  0  0  0  0
   40.0533    1.1621    0.8872 N   0  0  0  0  0  0  0  0  0  0  0  0
   41.3998    1.0683    0.6955 C   0  0  0  0  0  0  0  0  0  0  0  0
   42.0643    0.0117    0.0554 C   0  0  0  0  0  0  0  0  0  0  0  0
   41.3777   -1.0261   -0.5925 C   0  0  0  0  0  0  0  0  0  0  0  0
   42.0282   -2.1401   -1.2051 C   0  0  0  0  0  0  0  0  0  0  0  0
   41.0680   -2.8525   -1.8432 C   0  0  0  0  0  0  0  0  0  0  0  0
   39.8320   -2.1614   -1.6294 C   0  0  0  0  0  0  0  0  0  0  0  0
   40.0336   -1.0703   -0.8174 N   0  0  0  0  0  0  0  0  0  0  0  0
   38.6283   -2.5217   -2.2220 C   0  0  0  0  0  0  0  0  0  0  0  0
   38.6167   -3.6431   -3.1854 C   0  0  0  0  0  0  0  0  0  0  0  0
   39.4144   -3.6102   -4.3313 C   0  0  0  0  0  0  0  0  0  0  0  0
   39.4037   -4.6526   -5.2417 C   0  0  0  0  0  0  0  0  0  0  0  0
   38.6016   -5.7752   -5.0145 C   0  0  0  0  0  0  0  0  0  0  0  0
   38.5194   -6.8269   -5.9133 N   0  0  0  0  0  0  0  0  0  0  0  0
   39.6241   -7.0864   -6.8266 C   0  0  0  0  0  0  0  0  0  0  0  0
   37.7981   -5.8125   -3.8677 C   0  0  0  0  0  0  0  0  0  0  0  0
   37.8033   -4.7604   -2.9724 C   0  0  0  0  0  0  0  0  0  0  0  0
   37.4293   -1.8700   -1.9411 C   0  0  0  0  0  0  0  0  0  0  0  0
   36.1786   -2.1757   -2.5731 C   0  0  0  0  0  0  0  0  0  0  0  0
   35.2323   -1.4348   -1.9480 C   0  0  0  0  0  0  0  0  0  0  0  0
   35.9088   -0.6669   -0.9474 C   0  0  0  0  0  0  0  0  0  0  0  0
   37.2574   -0.9086   -0.9838 N   0  0  0  0  0  0  0  0  0  0  0  0
   34.1814    0.1473   -0.0332 H   0  0  0  0  0  0  0  0  0  0  0  0
   34.1750    1.7066    2.0565 H   0  0  0  0  0  0  0  0  0  0  0  0
   36.0762    3.1232    3.3434 H   0  0  0  0  0  0  0  0  0  0  0  0
   37.3327    5.0163    2.0242 H   0  0  0  0  0  0  0  0  0  0  0  0
   37.3415    6.9091    3.5980 H   0  0  0  0  0  0  0  0  0  0  0  0
   37.8892    7.6792    5.6839 H   0  0  0  0  0  0  0  0  0  0  0  0
   40.0892    6.6713    7.3343 H   0  0  0  0  0  0  0  0  0  0  0  0
   38.4278    6.1492    7.7148 H   0  0  0  0  0  0  0  0  0  0  0  0
   38.8549    7.8803    7.7256 H   0  0  0  0  0  0  0  0  0  0  0  0
   40.0348    4.7488    6.1588 H   0  0  0  0  0  0  0  0  0  0  0  0
   40.0107    2.8723    4.5903 H   0  0  0  0  0  0  0  0  0  0  0  0
   41.2591    3.8110    2.5082 H   0  0  0  0  0  0  0  0  0  0  0  0
   43.1415    2.3135    1.3066 H   0  0  0  0  0  0  0  0  0  0  0  0
   43.0844   -2.3432   -1.1477 H   0  0  0  0  0  0  0  0  0  0  0  0
   41.1784   -3.7669   -2.4029 H   0  0  0  0  0  0  0  0  0  0  0  0
   40.0334   -2.7407   -4.5241 H   0  0  0  0  0  0  0  0  0  0  0  0
   40.0193   -4.5855   -6.1302 H   0  0  0  0  0  0  0  0  0  0  0  0
   38.1544   -7.6744   -5.4960 H   0  0  0  0  0  0  0  0  0  0  0  0
   39.6926   -6.2883   -7.5670 H   0  0  0  0  0  0  0  0  0  0  0  0
   39.4209   -8.0246   -7.3429 H   0  0  0  0  0  0  0  0  0  0  0  0
   40.5779   -7.1656   -6.2926 H   0  0  0  0  0  0  0  0  0  0  0  0
   37.1703   -6.6782   -3.6846 H   0  0  0  0  0  0  0  0  0  0  0  0
   37.1898   -4.8121   -2.0795 H   0  0  0  0  0  0  0  0  0  0  0  0
   36.0523   -2.8647   -3.3925 H   0  0  0  0  0  0  0  0  0  0  0  0
   34.1706   -1.3983   -2.1348 H   0  0  0  0  0  0  0  0  0  0  0  0
   60.3415   -0.0058   -0.0779 Fe  0  0  0  0  0  0  0  0  0  0  0  0
   63.7294   -0.0116   -0.0950 C   0  0  0  0  0  0  0  0  0  0  0  0
   63.0781   -1.0921   -0.6545 C   0  0  0  0  0  0  0  0  0  0  0  0
   63.7480   -2.2295   -1.2078 C   0  0  0  0  0  0  0  0  0  0  0  0
   62.7926   -3.0021   -1.7784 C   0  0  0  0  0  0  0  0  0  0  0  0
   61.5422   -2.3272   -1.5832 C   0  0  0  0  0  0  0  0  0  0  0  0
   61.7248   -1.1867   -0.8511 N   0  0  0  0  0  0  0  0  0  0  0  0
   60.3316   -2.7489   -2.1286 C   0  0  0  0  0  0  0  0  0  0  0  0
   60.3300   -3.9263   -3.0231 C   0  0  0  0  0  0  0  0  0  0  0  0
   61.1067   -3.9396   -4.1857 C   0  0  0  0  0  0  0  0  0  0  0  0
   61.1044   -5.0369   -5.0250 C   0  0  0  0  0  0  0  0  0  0  0  0
   60.3355   -6.1665   -4.7177 C   0  0  0  0  0  0  0  0  0  0  0  0
   60.3317   -7.2257   -5.6125 N   0  0  0  0  0  0  0  0  0  0  0  0
   59.9788   -8.5611   -5.1494 C   0  0  0  0  0  0  0  0  0  0  0  0
   59.5533   -6.1571   -3.5590 C   0  0  0  0  0  0  0  0  0  0  0  0
   59.5526   -5.0486   -2.7298 C   0  0  0  0  0  0  0  0  0  0  0  0
   59.1291   -2.1039   -1.8693 C   0  0  0  0  0  0  0  0  0  0  0  0
   57.8793   -2.4720   -2.4641 C   0  0  0  0  0  0  0  0  0  0  0  0
   56.9285   -1.7039   -1.8793 C   0  0  0  0  0  0  0  0  0  0  0  0
   58.9431   -1.0789   -0.9720 N   0  0  0  0  0  0  0  0  0  0  0  0
   57.5975   -0.8603   -0.9411 C   0  0  0  0  0  0  0  0  0  0  0  0
   56.9277   -0.0061   -0.0523 C   0  0  0  0  0  0  0  0  0  0  0  0
   57.6105    0.8503    0.8243 C   0  0  0  0  0  0  0  0  0  0  0  0
   56.9547    1.6981    1.7682 C   0  0  0  0  0  0  0  0  0  0  0  0
   57.9139    2.4691    2.3354 C   0  0  0  0  0  0  0  0  0  0  0  0
   59.1551    2.0983    1.7246 C   0  0  0  0  0  0  0  0  0  0  0  0
   58.9563    1.0694    0.8345 N   0  0  0  0  0  0  0  0  0  0  0  0
   60.3619    2.7432    1.9645 C   0  0  0  0  0  0  0  0  0  0  0  0
   60.3733    3.9247    2.8534 C   0  0  0  0  0  0  0  0  0  0  0  0
   59.5929    5.0461    2.5642 C   0  0  0  0  0  0  0  0  0  0  0  0
   59.6035    6.1577    3.3888 C   0  0  0  0  0  0  0  0  0  0  0  0
   60.3878    6.1659    4.5462 C   0  0  0  0  0  0  0  0  0  0  0  0
   60.4695    7.2677    5.3836 N   0  0  0  0  0  0  0  0  0  0  0  0
   59.3727    8.2252    5.4262 C   0  0  0  0  0  0  0  0  0  0  0  0
   61.1742    5.0447    4.8397 C   0  0  0  0  0  0  0  0  0  0  0  0
   61.1694    3.9455    4.0027 C   0  0  0  0  0  0  0  0  0  0  0  0
   61.5648    2.3172    1.4057 C   0  0  0  0  0  0  0  0  0  0  0  0
   62.8190    2.9899    1.5838 C   0  0  0  0  0  0  0  0  0  0  0  0
   63.7666    2.2107    1.0092 C   0  0  0  0  0  0  0  0  0  0  0  0
   63.0877    1.0724    0.4687 C   0  0  0  0  0  0  0  0  0  0  0  0
   61.7368    1.1723    0.6780 N   0  0  0  0  0  0  0  0  0  0  0  0
   64.8138   -0.0138   -0.1002 H   0  0  0  0  0  0  0  0  0  0  0  0
   64.8122   -2.3981   -1.1575 H   0  0  0  0  0  0  0  0  0  0  0  0
   62.9120   -3.9473   -2.2828 H   0  0  0  0  0  0  0  0  0  0  0  0
   61.6999   -3.0685   -4.4417 H   0  0  0  0  0  0  0  0  0  0  0  0
   61.7011   -5.0286   -5.9311 H   0  0  0  0  0  0  0  0  0  0  0  0
   61.1436   -7.2298   -6.2182 H   0  0  0  0  0  0  0  0  0  0  0  0
   58.9194   -8.6005   -4.8932 H   0  0  0  0  0  0  0  0  0  0  0  0
   60.5724   -8.8542   -4.2759 H   0  0  0  0  0  0  0  0  0  0  0  0
   60.1668   -9.2605   -5.9640 H   0  0  0  0  0  0  0  0  0  0  0  0
   58.9423   -7.0127   -3.2986 H   0  0  0  0  0  0  0  0  0  0  0  0
   58.9558   -5.0611   -1.8242 H   0  0  0  0  0  0  0  0  0  0  0  0
   57.7539   -3.2163   -3.2335 H   0  0  0  0  0  0  0  0  0  0  0  0
   55.8671   -1.7010   -2.0611 H   0  0  0  0  0  0  0  0  0  0  0  0
   55.8956    1.6962    1.9640 H   0  0  0  0  0  0  0  0  0  0  0  0
   57.7996    3.2173    3.1028 H   0  0  0  0  0  0  0  0  0  0  0  0
   58.9878    5.0557    1.6641 H   0  0  0  0  0  0  0  0  0  0  0  0
   59.0016    7.0184    3.1243 H   0  0  0  0  0  0  0  0  0  0  0  0
   60.8167    7.0353    6.3062 H   0  0  0  0  0  0  0  0  0  0  0  0
   59.3233    8.7791    4.4879 H   0  0  0  0  0  0  0  0  0  0  0  0
   59.5698    8.9277    6.2359 H   0  0  0  0  0  0  0  0  0  0  0  0
   58.4115    7.7289    5.6029 H   0  0  0  0  0  0  0  0  0  0  0  0
   61.7886    5.0435    5.7339 H   0  0  0  0  0  0  0  0  0  0  0  0
   61.7693    3.0773    4.2526 H   0  0  0  0  0  0  0  0  0  0  0  0
   62.9466    3.9384    2.0801 H   0  0  0  0  0  0  0  0  0  0  0  0
   64.8306    2.3761    0.9473 H   0  0  0  0  0  0  0  0  0  0  0  0
   43.4670   -0.0022    0.0581 C   0  0  0  0  0  0  0  0  0  0  0  0
   44.6878   -0.0048    0.0518 C   0  0  0  0  0  0  0  0  0  0  0  0
   54.3037   -0.0063   -0.0322 C   0  0  0  0  0  0  0  0  0  0  0  0
   55.5246   -0.0062   -0.0413 C   0  0  0  0  0  0  0  0  0  0  0  0
   49.4953    0.0133   -0.0078 Fe  0  0  0  0  0  0  0  0  0  0  0  0
   46.0894   -0.0046    0.0432 C   0  0  0  0  0  0  0  0  0  0  0  0
   46.7680   -1.1282   -0.4555 C   0  0  0  0  0  0  0  0  0  0  0  0
   46.1165   -2.3017   -0.9412 C   0  0  0  0  0  0  0  0  0  0  0  0
   47.0658   -3.0521   -1.5538 C   0  0  0  0  0  0  0  0  0  0  0  0
   48.3008   -2.3403   -1.4245 C   0  0  0  0  0  0  0  0  0  0  0  0
   48.1071   -1.1869   -0.7044 N   0  0  0  0  0  0  0  0  0  0  0  0
   49.4735   -2.6657   -2.0997 C   0  0  0  0  0  0  0  0  0  0  0  0
   49.4600   -3.8192   -3.0271 C   0  0  0  0  0  0  0  0  0  0  0  0
   49.2348   -5.1151   -2.5556 C   0  0  0  0  0  0  0  0  0  0  0  0
   49.2271   -6.1901   -3.4240 C   0  0  0  0  0  0  0  0  0  0  0  0
   49.4350   -5.9985   -4.7956 C   0  0  0  0  0  0  0  0  0  0  0  0
   49.3610   -7.0993   -5.6355 N   0  0  0  0  0  0  0  0  0  0  0  0
   50.0202   -7.0608   -6.9340 C   0  0  0  0  0  0  0  0  0  0  0  0
   49.6434   -4.7013   -5.2736 C   0  0  0  0  0  0  0  0  0  0  0  0
   49.6650   -3.6319   -4.3949 C   0  0  0  0  0  0  0  0  0  0  0  0
   50.6568   -1.9503   -1.9434 C   0  0  0  0  0  0  0  0  0  0  0  0
   51.8862   -2.2651   -2.6053 C   0  0  0  0  0  0  0  0  0  0  0  0
   52.8500   -1.5136   -2.0170 C   0  0  0  0  0  0  0  0  0  0  0  0
   50.8691   -0.9854   -0.9890 N   0  0  0  0  0  0  0  0  0  0  0  0
   52.2120   -0.7518   -0.9922 C   0  0  0  0  0  0  0  0  0  0  0  0
   52.9019    0.0003   -0.0271 C   0  0  0  0  0  0  0  0  0  0  0  0
   52.2268    0.7623    0.9403 C   0  0  0  0  0  0  0  0  0  0  0  0
   52.8713    1.4877    1.9866 C   0  0  0  0  0  0  0  0  0  0  0  0
   51.9192    2.2549    2.5762 C   0  0  0  0  0  0  0  0  0  0  0  0
   50.6962    1.9992    1.8794 C   0  0  0  0  0  0  0  0  0  0  0  0
   50.8893    1.0279    0.9290 N   0  0  0  0  0  0  0  0  0  0  0  0
   49.5150    2.7165    2.0577 C   0  0  0  0  0  0  0  0  0  0  0  0
   49.5260    3.8947    2.9443 C   0  0  0  0  0  0  0  0  0  0  0  0
   48.6065    4.0145    3.9901 C   0  0  0  0  0  0  0  0  0  0  0  0
   48.6129    5.1152    4.8280 C   0  0  0  0  0  0  0  0  0  0  0  0
   49.5456    6.1395    4.6352 C   0  0  0  0  0  0  0  0  0  0  0  0
   49.5601    7.2895    5.4058 N   0  0  0  0  0  0  0  0  0  0  0  0
   48.9795    7.2799    6.7410 C   0  0  0  0  0  0  0  0  0  0  0  0
   50.4615    6.0315    3.5804 C   0  0  0  0  0  0  0  0  0  0  0  0
   50.4556    4.9236    2.7561 C   0  0  0  0  0  0  0  0  0  0  0  0
   48.3241    2.3596    1.4294 C   0  0  0  0  0  0  0  0  0  0  0  0
   47.1049    3.1047    1.5047 C   0  0  0  0  0  0  0  0  0  0  0  0
   46.1405    2.3312    0.9443 C   0  0  0  0  0  0  0  0  0  0  0  0
   46.7742    1.1255    0.5190 C   0  0  0  0  0  0  0  0  0  0  0  0
   48.1152    1.1807    0.7576 N   0  0  0  0  0  0  0  0  0  0  0  0
   45.0647   -2.5094   -0.8370 H   0  0  0  0  0  0  0  0  0  0  0  0
   46.9412   -3.9922   -2.0658 H   0  0  0  0  0  0  0  0  0  0  0  0
   49.0903   -5.2803   -1.4937 H   0  0  0  0  0  0  0  0  0  0  0  0
   49.0607   -7.1927   -3.0447 H   0  0  0  0  0  0  0  0  0  0  0  0
   49.5176   -7.9740   -5.1492 H   0  0  0  0  0  0  0  0  0  0  0  0
   49.5043   -6.3628   -7.5947 H   0  0  0  0  0  0  0  0  0  0  0  0
   51.0709   -6.7621   -6.8436 H   0  0  0  0  0  0  0  0  0  0  0  0
   49.9651   -8.0585   -7.3693 H   0  0  0  0  0  0  0  0  0  0  0  0
   49.7856   -4.5193   -6.3317 H   0  0  0  0  0  0  0  0  0  0  0  0
   49.8185   -2.6293   -4.7785 H   0  0  0  0  0  0  0  0  0  0  0  0
   51.9970   -2.9846   -3.4000 H   0  0  0  0  0  0  0  0  0  0  0  0
   53.9026   -1.4815   -2.2425 H   0  0  0  0  0  0  0  0  0  0  0  0
   53.9164    1.4107    2.2359 H   0  0  0  0  0  0  0  0  0  0  0  0
   52.0290    2.9254    3.4130 H   0  0  0  0  0  0  0  0  0  0  0  0
   47.8928    3.2169    4.1653 H   0  0  0  0  0  0  0  0  0  0  0  0
   47.8897    5.1718    5.6322 H   0  0  0  0  0  0  0  0  0  0  0  0
   50.4436    7.7825    5.3664 H   0  0  0  0  0  0  0  0  0  0  0  0
   49.3864    6.4654    7.3511 H   0  0  0  0  0  0  0  0  0  0  0  0
   49.2086    8.2342    7.2151 H   0  0  0  0  0  0  0  0  0  0  0  0
   47.8958    7.1733    6.6766 H   0  0  0  0  0  0  0  0  0  0  0  0
   51.1778    6.8289    3.4130 H   0  0  0  0  0  0  0  0  0  0  0  0
   51.1614    4.8620    1.9351 H   0  0  0  0  0  0  0  0  0  0  0  0
   47.0055    4.0935    1.9220 H   0  0  0  0  0  0  0  0  0  0  0  0
   45.0942    2.5545    0.8186 H   0  0  0  0  0  0  0  0  0  0  0  0
  2  3  4  0  0  0  0
  3  4  4  0  0  0  0
  4  5  2  0  0  0  0
  5  6  4  0  0  0  0
  1  7  1  0  0  0  0
  3  7  4  0  0  0  0
  6  7  4  0  0  0  0
  6  8  4  0  0  0  0
  8  9  1  0  0  0  0
  9 10  4  0  0  0  0
 10 11  4  0  0  0  0
 11 12  4  0  0  0  0
 12 13  1  0  0  0  0
 13 14  1  0  0  0  0
 12 15  4  0  0  0  0
  9 16  4  0  0  0  0
 15 16  4  0  0  0  0
  8 17  4  0  0  0  0
 17 18  4  0  0  0  0
 18 19  2  0  0  0  0
  1 20  1  0  0  0  0
 17 20  4  0  0  0  0
 19 21  4  0  0  0  0
 20 21  4  0  0  0  0
 21 22  4  0  0  0  0
 22 23  4  0  0  0  0
 23 24  4  0  0  0  0
 24 25  2  0  0  0  0
 25 26  4  0  0  0  0
  1 27  1  0  0  0  0
 23 27  4  0  0  0  0
 26 27  4  0  0  0  0
 26 28  4  0  0  0  0
 28 29  1  0  0  0  0
 29 30  4  0  0  0  0
 30 31  4  0  0  0  0
 31 32  4  0  0  0  0
 32 33  1  0  0  0  0
 33 34  1  0  0  0  0
 32 35  4  0  0  0  0
 29 36  4  0  0  0  0
 35 36  4  0  0  0  0
 28 37  4  0  0  0  0
 37 38  4  0  0  0  0
 38 39  2  0  0  0  0
  2 40  4  0  0  0  0
 39 40  4  0  0  0  0
  1 41  1  0  0  0  0
 37 41  4  0  0  0  0
 40 41  4  0  0  0  0
  2 42  1  0  0  0  0
  4 43  1  0  0  0  0
  5 44  1  0  0  0  0
 10 45  1  0  0  0  0
 11 46  1  0  0  0  0
 13 47  1  0  0  0  0
 14 48  1  0  0  0  0
 14 49  1  0  0  0  0
 14 50  1  0  0  0  0
 15 51  1  0  0  0  0
 16 52  1  0  0  0  0
 18 53  1  0  0  0  0
 19 54  1  0  0  0  0
 24 55  1  0  0  0  0
 25 56  1  0  0  0  0
 30 57  1  0  0  0  0
 31 58  1  0  0  0  0
 33 59  1  0  0  0  0
 34 60  1  0  0  0  0
 34 61  1  0  0  0  0
 34 62  1  0  0  0  0
 35 63  1  0  0  0  0
 36 64  1  0  0  0  0
 38 65  1  0  0  0  0
 39 66  1  0  0  0  0
 68 69  4  0  0  0  0
 69 70  4  0  0  0  0
 70 71  2  0  0  0  0
 71 72  4  0  0  0  0
 67 73  1  0  0  0  0
 69 73  4  0  0  0  0
 72 73  4  0  0  0  0
 72 74  4  0  0  0  0
 74 75  1  0  0  0  0
 75 76  4  0  0  0  0
 76 77  4  0  0  0  0
 77 78  4  0  0  0  0
 78 79  1  0  0  0  0
 79 80  1  0  0  0  0
 78 81  4  0  0  0  0
 75 82  4  0  0  0  0
 81 82  4  0  0  0  0
 74 83  4  0  0  0  0
 83 84  4  0  0  0  0
 84 85  2  0  0  0  0
 67 86  1  0  0  0  0
 83 86  4  0  0  0  0
 85 87  4  0  0  0  0
 86 87  4  0  0  0  0
 87 88  4  0  0  0  0
 88 89  4  0  0  0  0
 89 90  4  0  0  0  0
 90 91  2  0  0  0  0
 91 92  4  0  0  0  0
 67 93  1  0  0  0  0
 89 93  4  0  0  0  0
 92 93  4  0  0  0  0
 92 94  4  0  0  0  0
 94 95  1  0  0  0  0
 95 96  4  0  0  0  0
 96 97  4  0  0  0  0
 97 98  4  0  0  0  0
 98 99  1  0  0  0  0
 99100  1  0  0  0  0
 98101  4  0  0  0  0
 95102  4  0  0  0  0
101102  4  0  0  0  0
 94103  4  0  0  0  0
103104  4  0  0  0  0
104105  2  0  0  0  0
 68106  4  0  0  0  0
105106  4  0  0  0  0
 67107  1  0  0  0  0
103107  4  0  0  0  0
106107  4  0  0  0  0
 68108  1  0  0  0  0
 70109  1  0  0  0  0
 71110  1  0  0  0  0
 76111  1  0  0  0  0
 77112  1  0  0  0  0
 79113  1  0  0  0  0
 80114  1  0  0  0  0
 80115  1  0  0  0  0
 80116  1  0  0  0  0
 81117  1  0  0  0  0
 82118  1  0  0  0  0
 84119  1  0  0  0  0
 85120  1  0  0  0  0
 90121  1  0  0  0  0
 91122  1  0  0  0  0
 96123  1  0  0  0  0
 97124  1  0  0  0  0
 99125  1  0  0  0  0
100126  1  0  0  0  0
100127  1  0  0  0  0
100128  1  0  0  0  0
101129  1  0  0  0  0
102130  1  0  0  0  0
104131  1  0  0  0  0
105132  1  0  0  0  0
 22133  4  0  0  0  0
133134  3  0  0  0  0
 88136  4  0  0  0  0
135136  3  0  0  0  0
134138  4  0  0  0  0
138139  4  0  0  0  0
139140  4  0  0  0  0
140141  2  0  0  0  0
141142  4  0  0  0  0
137143  1  0  0  0  0
139143  4  0  0  0  0
142143  4  0  0  0  0
142144  4  0  0  0  0
144145  1  0  0  0  0
145146  4  0  0  0  0
146147  4  0  0  0  0
147148  4  0  0  0  0
148149  1  0  0  0  0
149150  1  0  0  0  0
148151  4  0  0  0  0
145152  4  0  0  0  0
151152  4  0  0  0  0
144153  4  0  0  0  0
153154  4  0  0  0  0
154155  2  0  0  0  0
137156  1  0  0  0  0
153156  4  0  0  0  0
155157  4  0  0  0  0
156157  4  0  0  0  0
135158  4  0  0  0  0
157158  4  0  0  0  0
158159  4  0  0  0  0
159160  4  0  0  0  0
160161  2  0  0  0  0
161162  4  0  0  0  0
137163  1  0  0  0  0
159163  4  0  0  0  0
162163  4  0  0  0  0
162164  4  0  0  0  0
164165  1  0  0  0  0
165166  4  0  0  0  0
166167  4  0  0  0  0
167168  4  0  0  0  0
168169  1  0  0  0  0
169170  1  0  0  0  0
168171  4  0  0  0  0
165172  4  0  0  0  0
171172  4  0  0  0  0
164173  4  0  0  0  0
173174  4  0  0  0  0
174175  2  0  0  0  0
138176  4  0  0  0  0
175176  4  0  0  0  0
137177  1  0  0  0  0
173177  4  0  0  0  0
176177  4  0  0  0  0
140178  1  0  0  0  0
141179  1  0  0  0  0
146180  1  0  0  0  0
147181  1  0  0  0  0
149182  1  0  0  0  0
150183  1  0  0  0  0
150184  1  0  0  0  0
150185  1  0  0  0  0
151186  1  0  0  0  0
152187  1  0  0  0  0
154188  1  0  0  0  0
155189  1  0  0  0  0
160190  1  0  0  0  0
161191  1  0  0  0  0
166192  1  0  0  0  0
167193  1  0  0  0  0
169194  1  0  0  0  0
170195  1  0  0  0  0
170196  1  0  0  0  0
170197  1  0  0  0  0
171198  1  0  0  0  0
172199  1  0  0  0  0
174200  1  0  0  0  0
175201  1  0  0  0  0
M  END
