542

C 98.868389 0.090081 -0.013523
C 99.592790 0.001469 1.363580
C 98.972897 -0.031394 2.592570
C 99.993578 -0.149095 3.569962
C 101.204949 -0.182763 2.903954
N 100.948149 -0.068686 1.561069
C 102.636934 -0.360653 3.561439
C 102.690149 -0.632229 5.017376
C 102.888593 0.405994 5.925496
C 102.923422 0.148272 7.303944
C 102.747105 -1.146132 7.831635
N 102.786433 -1.393956 9.216762
C 102.489587 -0.276055 10.108970
C 102.373218 -2.709616 9.694915
C 102.574074 -2.176718 6.886762
C 102.538209 -1.927918 5.506169
C 103.764673 -0.291415 2.802945
C 105.076200 -0.518225 3.374065
C 105.978514 -0.415874 2.406012
N 103.956629 -0.039278 1.468903
C 105.293559 -0.099363 1.168014
C 105.966338 0.080227 -0.000193
C 105.193932 0.471743 -1.332748
C 105.760032 1.028636 -2.464475
C 104.734345 1.176844 -3.429084
C 103.564584 0.721181 -2.856630
N 103.846476 0.331743 -1.567714
C 102.140750 0.676530 -3.558220
C 102.092052 0.825080 -5.029613
C 101.916394 2.079823 -5.610647
C 101.909431 2.221496 -7.005411
C 102.088827 1.125075 -7.871886
N 102.089080 1.290960 -9.271488
C 102.349997 0.120723 -10.104327
C 102.643428 2.549421 -9.770207
C 102.225673 -0.133622 -7.255673
C 102.238007 -0.283631 -5.860692
C 101.018506 0.509553 -2.811294
C 99.689954 0.466517 -3.397050
C 98.806266 0.310005 -2.416149
C 99.534638 0.242640 -1.172954
N 100.859256 0.356725 -1.461614
H 97.786925 0.018735 -0.022187
H 97.908366 0.013782 2.765431
H 99.859945 -0.213871 4.640044
H 101.652909 -0.037782 0.828486
H 103.024292 1.417809 5.550125
H 103.101131 1.002147 7.948241
H 101.507385 0.158808 9.890515
H 102.479535 -0.600255 11.156208
H 103.260165 0.499534 10.045975
H 101.325956 -2.912014 9.444186
H 103.011951 -3.501321 9.288578
H 102.471033 -2.778112 10.784393
H 102.458307 -3.211278 7.189538
H 102.397433 -2.745596 4.802827
H 105.293851 -0.745623 4.402658
H 107.036500 -0.542746 2.545009
H 106.799300 1.290298 -2.592517
H 104.838285 1.569366 -4.429758
H 103.153431 0.029141 -0.887689
H 101.782846 2.947516 -4.968166
H 101.745378 3.221927 -7.390802
H 102.246312 0.372476 -11.166180
H 103.366064 -0.259149 -9.949817
H 101.623734 -0.676744 -9.911933
H 101.998504 3.398242 -9.521816
H 102.714793 2.539402 -10.863583
H 103.651434 2.725274 -9.377655
H 102.343696 -1.041682 -7.835935
H 102.362903 -1.267866 -5.413615
H 99.455137 0.548756 -4.443439
H 97.738747 0.243271 -2.524155
C 202.750701 0.086683 0.015075
C 202.026300 0.323217 -1.344453
C 202.646193 0.579242 -2.546929
C 201.625512 0.693838 -3.524689
C 200.414141 0.505050 -2.885112
N 200.670940 0.301290 -1.552883
C 198.982156 0.486172 -3.565975
C 198.928941 0.563308 -5.045014
C 198.730497 1.785415 -5.684579
C 198.695668 1.857862 -7.085040
C 198.871985 0.723141 -7.901342
N 198.832657 0.806775 -9.305976
C 199.129503 2.102613 -9.911402
C 199.245872 -0.360219 -10.079099
C 199.045016 -0.500154 -7.224258
C 199.080881 -0.581777 -5.823802
C 197.854417 0.375754 -2.812374
C 196.542889 0.289082 -3.420740
C 195.640576 0.161752 -2.455655
N 197.662461 0.308283 -1.456391
C 196.325531 0.179368 -1.177958
C 195.652752 0.080227 -0.000193
C 196.425158 0.148603 1.387003
C 195.859058 0.424809 2.617713
C 196.884745 0.342866 3.590194
C 198.054505 0.034025 2.926908
N 197.772614 -0.042556 1.582623
C 199.478340 -0.173777 3.598503
C 199.527038 -0.374136 5.063741
C 199.702696 0.709529 5.922607
C 199.709659 0.520442 7.311738
C 199.530263 -0.748486 7.897180
N 199.530010 -0.915170 9.296687
C 199.269093 -2.247975 9.832134
C 198.975662 0.191398 10.076400
C 199.393417 -1.827751 7.003188
C 199.381083 -1.646717 5.611893
C 200.600583 -0.161088 2.833247
C 201.929136 -0.340179 3.392611
C 202.812824 -0.262492 2.402344
C 202.084452 -0.036680 1.177975
N 200.759834 0.006592 1.485331
H 203.832165 0.015293 0.006780
H 203.710724 0.663665 -2.704392
H 201.759145 0.881604 -4.580159
H 199.966181 0.159677 -0.833453
H 198.594798 2.681105 -5.082573
H 198.517959 2.838935 -7.511323
H 200.111705 2.474183 -9.597133
H 199.139555 2.032825 -11.005451
H 198.358925 2.841849 -9.668427
H 200.293133 -0.615732 -9.882775
H 198.607139 -1.225094 -9.869584
H 199.148057 -0.171523 -11.154296
H 199.160783 -1.434966 -7.761020
H 199.221657 -1.541496 -5.331637
H 196.325239 0.309032 -4.473980
H 194.582590 0.070982 -2.620510
H 194.819790 0.649184 2.803502
H 196.780805 0.489986 4.654984
H 198.465659 -0.177392 0.850625
H 199.836244 1.703610 5.501328
H 199.873712 1.402717 7.920817
H 199.372778 -2.252042 10.923415
H 198.253026 -2.581067 9.592914
H 199.995356 -2.978160 9.458235
H 199.620586 1.074791 10.033818
H 198.904297 -0.074539 11.136990
H 197.967656 0.454337 9.735982
H 199.275394 -2.846497 7.354522
H 199.256187 -2.498793 4.946639
H 202.163953 -0.505416 4.429138
H 203.880343 -0.352676 2.491706
C 111.974745 0.081538 0.008239
C 110.765805 0.068083 -0.000208
C 109.344277 0.076903 -0.012191
C 108.132607 0.084341 -0.001328
C 113.391349 0.074863 0.008772
C 114.612045 0.084341 -0.001328
C 127.750233 0.081538 0.008239
C 126.541294 0.068083 -0.000208
C 125.119765 0.076903 -0.012191
C 123.908095 0.084341 -0.001328
C 129.166837 0.074863 0.008772
C 130.387533 0.084341 -0.001328
C 143.525721 0.081538 0.008239
C 142.316782 0.068083 -0.000208
C 140.895253 0.076903 -0.012191
C 139.683583 0.084341 -0.001328
C 144.942325 0.074863 0.008772
C 146.163021 0.084341 -0.001328
C 159.301209 0.081538 0.008239
C 158.092270 0.068083 -0.000208
C 156.670741 0.076903 -0.012191
C 155.459071 0.084341 -0.001328
C 160.717814 0.074863 0.008772
C 161.938509 0.084341 -0.001328
C 175.076697 0.081538 0.008239
C 173.867758 0.068083 -0.000208
C 172.446229 0.076903 -0.012191
C 171.234560 0.084341 -0.001328
C 176.493302 0.074863 0.008772
C 177.713998 0.084341 -0.001328
C 190.852186 0.081538 0.008239
C 189.643246 0.068083 -0.000208
C 188.221717 0.076903 -0.012191
C 187.010048 0.084341 -0.001328
C 192.268790 0.074863 0.008772
C 193.489486 0.084341 -0.001328
C 115.685088 -0.040971 0.000211
C 116.478874 -0.390942 1.326571
C 115.971122 -1.006013 2.453276
C 117.008339 -1.041987 3.420110
C 118.118993 -0.454668 2.851243
N 117.808239 -0.131847 1.553983
C 119.509134 -0.187589 3.562816
C 119.498619 -0.006418 5.032481
C 119.048669 1.187389 5.593046
C 119.010555 1.351475 6.985825
C 119.400488 0.327744 7.868770
N 119.362437 0.472053 9.271107
C 118.887175 1.739228 9.817289
C 118.945731 -0.718423 10.012736
C 119.876142 -0.857047 7.274336
C 119.918824 -1.028060 5.883292
C 120.643753 -0.085842 2.821665
C 121.930363 0.214621 3.414913
C 122.838278 0.257625 2.445830
N 120.851870 -0.206417 1.475445
C 122.176136 -0.014445 1.185702
C 122.839726 -0.040971 0.000211
C 122.045928 -0.340078 -1.338552
C 122.553334 -0.913923 -2.487198
C 121.516422 -0.912755 -3.455021
C 120.406253 -0.345587 -2.864633
N 120.716896 -0.072187 -1.556070
C 119.016486 -0.050649 -3.565875
C 119.027459 0.183062 -5.028090
C 119.486825 1.391410 -5.547052
C 119.524258 1.602985 -6.933747
C 119.124051 0.615812 -7.854491
N 119.161134 0.820673 -9.247740
C 119.339575 -0.366783 -10.081233
C 119.788088 2.039520 -9.750270
C 118.640252 -0.584726 -7.298807
C 118.599115 -0.804420 -5.914053
C 117.881748 0.023653 -2.821236
C 116.594940 0.346428 -3.402316
C 115.686919 0.352026 -2.432156
C 116.349095 0.031937 -1.183428
N 117.673781 -0.147688 -1.480352
H 114.961805 -1.367755 2.577164
H 116.947152 -1.431680 4.425189
H 118.469636 0.208588 0.861787
H 118.725346 1.992674 4.936827
H 118.646932 2.306896 7.347075
H 119.006354 1.754959 10.907201
H 119.474876 2.582837 9.437443
H 117.825406 1.897698 9.595681
H 119.692804 -1.515959 9.951806
H 117.980208 -1.093682 9.653554
H 118.836379 -0.493247 11.080405
H 120.248574 -1.676266 7.879811
H 120.288765 -1.956863 5.454068
H 122.124467 0.386025 4.458915
H 123.882420 0.464765 2.592090
H 123.562411 -1.272179 -2.623787
H 121.577106 -1.264674 -4.474039
H 120.056351 0.244146 -0.851175
H 119.817073 2.171241 -4.863941
H 119.891927 2.569306 -7.260297
H 120.232848 -0.930158 -9.787829
H 118.461248 -1.019680 -10.040875
H 119.458844 -0.092278 -11.136040
H 120.855146 2.070263 -9.502783
H 119.699429 2.100070 -10.841168
H 119.291037 2.934531 -9.359555
H 118.266942 -1.385776 -7.926924
H 118.225133 -1.745945 -5.517500
H 116.400274 0.557436 -4.438763
H 114.642550 0.564537 -2.570076
C 131.460576 -0.040971 0.000211
C 132.254362 -0.390942 1.326571
C 131.746611 -1.006013 2.453276
C 132.783827 -1.041987 3.420110
C 133.894481 -0.454668 2.851243
N 133.583727 -0.131847 1.553983
C 135.284622 -0.187589 3.562816
C 135.274107 -0.006418 5.032481
C 134.824157 1.187389 5.593046
C 134.786044 1.351475 6.985825
C 135.175977 0.327744 7.868770
N 135.137925 0.472053 9.271107
C 134.662664 1.739228 9.817289
C 134.721219 -0.718423 10.012736
C 135.651630 -0.857047 7.274336
C 135.694312 -1.028060 5.883292
C 136.419241 -0.085842 2.821665
C 137.705851 0.214621 3.414913
C 138.613766 0.257625 2.445830
N 136.627358 -0.206417 1.475445
C 137.951624 -0.014445 1.185702
C 138.615214 -0.040971 0.000211
C 137.821416 -0.340078 -1.338552
C 138.328822 -0.913923 -2.487198
C 137.291910 -0.912755 -3.455021
C 136.181741 -0.345587 -2.864633
N 136.492385 -0.072187 -1.556070
C 134.791974 -0.050649 -3.565875
C 134.802947 0.183062 -5.028090
C 135.262313 1.391410 -5.547052
C 135.299746 1.602985 -6.933747
C 134.899539 0.615812 -7.854491
N 134.936622 0.820673 -9.247740
C 135.115064 -0.366783 -10.081233
C 135.563576 2.039520 -9.750270
C 134.415740 -0.584726 -7.298807
C 134.374603 -0.804420 -5.914053
C 133.657236 0.023653 -2.821236
C 132.370428 0.346428 -3.402316
C 131.462407 0.352026 -2.432156
C 132.124583 0.031937 -1.183428
N 133.449269 -0.147688 -1.480352
H 130.737293 -1.367755 2.577164
H 132.722640 -1.431680 4.425189
H 134.245124 0.208588 0.861787
H 134.500834 1.992674 4.936827
H 134.422420 2.306896 7.347075
H 134.781842 1.754959 10.907201
H 135.250364 2.582837 9.437443
H 133.600894 1.897698 9.595681
H 135.468292 -1.515959 9.951806
H 133.755697 -1.093682 9.653554
H 134.611867 -0.493247 11.080405
H 136.024062 -1.676266 7.879811
H 136.064253 -1.956863 5.454068
H 137.899956 0.386025 4.458915
H 139.657908 0.464765 2.592090
H 139.337899 -1.272179 -2.623787
H 137.352594 -1.264674 -4.474039
H 135.831840 0.244146 -0.851175
H 135.592561 2.171241 -4.863941
H 135.667415 2.569306 -7.260297
H 136.008336 -0.930158 -9.787829
H 134.236736 -1.019680 -10.040875
H 135.234332 -0.092278 -11.136040
H 136.630634 2.070263 -9.502783
H 135.474918 2.100070 -10.841168
H 135.066526 2.934531 -9.359555
H 134.042430 -1.385776 -7.926924
H 134.000621 -1.745945 -5.517500
H 132.175762 0.557436 -4.438763
H 130.418038 0.564537 -2.570076
C 147.236064 -0.040971 0.000211
C 148.029850 -0.390942 1.326571
C 147.522099 -1.006013 2.453276
C 148.559315 -1.041987 3.420110
C 149.669969 -0.454668 2.851243
N 149.359215 -0.131847 1.553983
C 151.060110 -0.187589 3.562816
C 151.049596 -0.006418 5.032481
C 150.599646 1.187389 5.593046
C 150.561532 1.351475 6.985825
C 150.951465 0.327744 7.868770
N 150.913414 0.472053 9.271107
C 150.438152 1.739228 9.817289
C 150.496707 -0.718423 10.012736
C 151.427118 -0.857047 7.274336
C 151.469801 -1.028060 5.883292
C 152.194729 -0.085842 2.821665
C 153.481339 0.214621 3.414913
C 154.389254 0.257625 2.445830
N 152.402846 -0.206417 1.475445
C 153.727112 -0.014445 1.185702
C 154.390702 -0.040971 0.000211
C 153.596904 -0.340078 -1.338552
C 154.104310 -0.913923 -2.487198
C 153.067398 -0.912755 -3.455021
C 151.957230 -0.345587 -2.864633
N 152.267873 -0.072187 -1.556070
C 150.567462 -0.050649 -3.565875
C 150.578435 0.183062 -5.028090
C 151.037801 1.391410 -5.547052
C 151.075234 1.602985 -6.933747
C 150.675027 0.615812 -7.854491
N 150.712110 0.820673 -9.247740
C 150.890552 -0.366783 -10.081233
C 151.339064 2.039520 -9.750270
C 150.191228 -0.584726 -7.298807
C 150.150091 -0.804420 -5.914053
C 149.432724 0.023653 -2.821236
C 148.145916 0.346428 -3.402316
C 147.237896 0.352026 -2.432156
C 147.900071 0.031937 -1.183428
N 149.224757 -0.147688 -1.480352
H 146.512782 -1.367755 2.577164
H 148.498128 -1.431680 4.425189
H 150.020613 0.208588 0.861787
H 150.276322 1.992674 4.936827
H 150.197908 2.306896 7.347075
H 150.557330 1.754959 10.907201
H 151.025853 2.582837 9.437443
H 149.376382 1.897698 9.595681
H 151.243780 -1.515959 9.951806
H 149.531185 -1.093682 9.653554
H 150.387355 -0.493247 11.080405
H 151.799550 -1.676266 7.879811
H 151.839741 -1.956863 5.454068
H 153.675444 0.386025 4.458915
H 155.433396 0.464765 2.592090
H 155.113388 -1.272179 -2.623787
H 153.128082 -1.264674 -4.474039
H 151.607328 0.244146 -0.851175
H 151.368050 2.171241 -4.863941
H 151.442903 2.569306 -7.260297
H 151.783824 -0.930158 -9.787829
H 150.012224 -1.019680 -10.040875
H 151.009820 -0.092278 -11.136040
H 152.406122 2.070263 -9.502783
H 151.250406 2.100070 -10.841168
H 150.842014 2.934531 -9.359555
H 149.817918 -1.385776 -7.926924
H 149.776110 -1.745945 -5.517500
H 147.951250 0.557436 -4.438763
H 146.193526 0.564537 -2.570076
C 163.011552 -0.040971 0.000211
C 163.805339 -0.390942 1.326571
C 163.297587 -1.006013 2.453276
C 164.334804 -1.041987 3.420110
C 165.445458 -0.454668 2.851243
N 165.134703 -0.131847 1.553983
C 166.835598 -0.187589 3.562816
C 166.825084 -0.006418 5.032481
C 166.375134 1.187389 5.593046
C 166.337020 1.351475 6.985825
C 166.726953 0.327744 7.868770
N 166.688902 0.472053 9.271107
C 166.213640 1.739228 9.817289
C 166.272195 -0.718423 10.012736
C 167.202606 -0.857047 7.274336
C 167.245289 -1.028060 5.883292
C 167.970217 -0.085842 2.821665
C 169.256827 0.214621 3.414913
C 170.164743 0.257625 2.445830
N 168.178335 -0.206417 1.475445
C 169.502601 -0.014445 1.185702
C 170.166191 -0.040971 0.000211
C 169.372392 -0.340078 -1.338552
C 169.879798 -0.913923 -2.487198
C 168.842886 -0.912755 -3.455021
C 167.732718 -0.345587 -2.864633
N 168.043361 -0.072187 -1.556070
C 166.342951 -0.050649 -3.565875
C 166.353924 0.183062 -5.028090
C 166.813289 1.391410 -5.547052
C 166.850722 1.602985 -6.933747
C 166.450515 0.615812 -7.854491
N 166.487598 0.820673 -9.247740
C 166.666040 -0.366783 -10.081233
C 167.114552 2.039520 -9.750270
C 165.966716 -0.584726 -7.298807
C 165.925580 -0.804420 -5.914053
C 165.208212 0.023653 -2.821236
C 163.921404 0.346428 -3.402316
C 163.013384 0.352026 -2.432156
C 163.675560 0.031937 -1.183428
N 165.000245 -0.147688 -1.480352
H 162.288270 -1.367755 2.577164
H 164.273616 -1.431680 4.425189
H 165.796101 0.208588 0.861787
H 166.051811 1.992674 4.936827
H 165.973396 2.306896 7.347075
H 166.332818 1.754959 10.907201
H 166.801341 2.582837 9.437443
H 165.151870 1.897698 9.595681
H 167.019268 -1.515959 9.951806
H 165.306673 -1.093682 9.653554
H 166.162844 -0.493247 11.080405
H 167.575038 -1.676266 7.879811
H 167.615229 -1.956863 5.454068
H 169.450932 0.386025 4.458915
H 171.208884 0.464765 2.592090
H 170.888876 -1.272179 -2.623787
H 168.903571 -1.264674 -4.474039
H 167.382816 0.244146 -0.851175
H 167.143538 2.171241 -4.863941
H 167.218392 2.569306 -7.260297
H 167.559312 -0.930158 -9.787829
H 165.787712 -1.019680 -10.040875
H 166.785309 -0.092278 -11.136040
H 168.181611 2.070263 -9.502783
H 167.025894 2.100070 -10.841168
H 166.617502 2.934531 -9.359555
H 165.593407 -1.385776 -7.926924
H 165.551598 -1.745945 -5.517500
H 163.726738 0.557436 -4.438763
H 161.969015 0.564537 -2.570076
C 178.787040 -0.040971 0.000211
C 179.580827 -0.390942 1.326571
C 179.073075 -1.006013 2.453276
C 180.110292 -1.041987 3.420110
C 181.220946 -0.454668 2.851243
N 180.910191 -0.131847 1.553983
C 182.611086 -0.187589 3.562816
C 182.600572 -0.006418 5.032481
C 182.150622 1.187389 5.593046
C 182.112508 1.351475 6.985825
C 182.502441 0.327744 7.868770
N 182.464390 0.472053 9.271107
C 181.989128 1.739228 9.817289
C 182.047683 -0.718423 10.012736
C 182.978094 -0.857047 7.274336
C 183.020777 -1.028060 5.883292
C 183.745706 -0.085842 2.821665
C 185.032315 0.214621 3.414913
C 185.940231 0.257625 2.445830
N 183.953823 -0.206417 1.475445
C 185.278089 -0.014445 1.185702
C 185.941679 -0.040971 0.000211
C 185.147880 -0.340078 -1.338552
C 185.655286 -0.913923 -2.487198
C 184.618374 -0.912755 -3.455021
C 183.508206 -0.345587 -2.864633
N 183.818849 -0.072187 -1.556070
C 182.118439 -0.050649 -3.565875
C 182.129412 0.183062 -5.028090
C 182.588777 1.391410 -5.547052
C 182.626210 1.602985 -6.933747
C 182.226004 0.615812 -7.854491
N 182.263087 0.820673 -9.247740
C 182.441528 -0.366783 -10.081233
C 182.890041 2.039520 -9.750270
C 181.742205 -0.584726 -7.298807
C 181.701068 -0.804420 -5.914053
C 180.983700 0.023653 -2.821236
C 179.696892 0.346428 -3.402316
C 178.788872 0.352026 -2.432156
C 179.451048 0.031937 -1.183428
N 180.775734 -0.147688 -1.480352
H 178.063758 -1.367755 2.577164
H 180.049105 -1.431680 4.425189
H 181.571589 0.208588 0.861787
H 181.827299 1.992674 4.936827
H 181.748884 2.306896 7.347075
H 182.108306 1.754959 10.907201
H 182.576829 2.582837 9.437443
H 180.927358 1.897698 9.595681
H 182.794756 -1.515959 9.951806
H 181.082161 -1.093682 9.653554
H 181.938332 -0.493247 11.080405
H 183.350526 -1.676266 7.879811
H 183.390717 -1.956863 5.454068
H 185.226420 0.386025 4.458915
H 186.984372 0.464765 2.592090
H 186.664364 -1.272179 -2.623787
H 184.679059 -1.264674 -4.474039
H 183.158304 0.244146 -0.851175
H 182.919026 2.171241 -4.863941
H 182.993880 2.569306 -7.260297
H 183.334800 -0.930158 -9.787829
H 181.563200 -1.019680 -10.040875
H 182.560797 -0.092278 -11.136040
H 183.957099 2.070263 -9.502783
H 182.801382 2.100070 -10.841168
H 182.392990 2.934531 -9.359555
H 181.368895 -1.385776 -7.926924
H 181.327086 -1.745945 -5.517500
H 179.502226 0.557436 -4.438763
H 177.744503 0.564537 -2.570076
