456

C 70.364072 0.013281 0.059706
C 71.088940 1.206609 -0.634671
C 70.474135 2.231963 -1.316397
C 71.495149 3.123913 -1.734779
C 72.699549 2.615318 -1.288675
N 72.443347 1.422555 -0.659665
C 74.126158 3.289730 -1.443034
C 74.171929 4.687534 -1.933534
C 74.437593 4.946989 -3.284817
C 74.473374 6.259544 -3.758297
C 74.239574 7.310823 -2.874269
O 74.267225 8.608156 -3.301745
C 73.971990 7.070660 -1.530685
C 73.938066 5.756563 -1.059450
C 75.255966 2.608904 -1.109681
C 76.564977 3.226118 -1.173872
C 77.467133 2.339364 -0.770601
N 75.449268 1.328093 -0.662651
C 76.783614 1.103859 -0.441572
C 77.451598 0.002817 -0.004878
C 76.671508 -1.343064 0.311250
C 77.208547 -2.615720 0.306435
C 76.183755 -3.514283 0.693566
C 75.046093 -2.767294 0.912771
N 75.339501 -1.453772 0.629821
C 73.637313 -3.323622 1.384971
C 73.603623 -4.637040 2.067024
C 73.982335 -4.748166 3.410458
C 73.962636 -5.991213 4.046821
C 73.565750 -7.119308 3.336777
O 73.556519 -8.319245 3.989915
C 73.188575 -7.028393 1.998703
C 73.210349 -5.784788 1.365203
C 72.513646 -2.594515 1.157883
C 71.193421 -3.035443 1.572950
C 70.308605 -2.117195 1.196305
C 71.029045 -1.054384 0.539135
N 72.348962 -1.381452 0.549132
H 69.287431 0.067995 0.167772
H 69.412438 2.335170 -1.479363
H 71.363061 4.046597 -2.279505
H 73.147370 0.800765 -0.269200
H 74.620148 4.109874 -3.955644
H 74.684278 6.431054 -4.807288
H 74.484703 8.594163 -4.247169
H 73.792069 7.894651 -0.848986
H 73.732629 5.549677 -0.011594
H 76.779897 4.234982 -1.477995
H 78.523290 2.528007 -0.710018
H 78.228405 -2.872556 0.063812
H 76.267466 -4.584862 0.804423
H 74.658871 -0.698623 0.607676
H 74.289637 -3.855722 3.950923
H 74.255260 -6.070405 5.088061
H 73.247263 -8.987480 3.358253
H 72.876594 -7.898022 1.432445
H 72.918182 -5.688862 0.321306
H 70.965354 -3.944535 2.099534
H 69.246674 -2.149575 1.359207
C 194.330838 0.051470 0.038866
C 193.605970 -1.178150 0.666742
C 194.220776 -2.306246 1.160200
C 193.199761 -3.140694 1.683949
C 191.995361 -2.490348 1.497595
N 192.251564 -1.316008 0.834827
C 190.568752 -2.985057 1.981250
C 190.522981 -4.153851 2.891396
C 190.257318 -5.430642 2.378475
C 190.221536 -6.538998 3.226136
C 190.455337 -6.364343 4.588557
O 190.427685 -7.425774 5.448308
C 190.722920 -5.104465 5.113537
C 190.756845 -3.997163 4.263363
C 189.438945 -2.336347 1.589046
C 188.129933 -2.724278 2.073385
C 187.227778 -1.905348 1.545828
N 189.245643 -1.267410 0.753769
C 187.911296 -0.960163 0.684808
C 187.243313 0.002817 -0.004878
C 188.023402 0.996872 -0.965703
C 187.486363 1.681402 -2.038595
C 188.511155 2.493146 -2.584815
C 189.648817 2.273332 -1.838005
N 189.355409 1.324686 -0.886442
C 191.057597 2.971450 -2.050383
C 191.091287 4.255681 -2.785921
C 190.712576 5.445616 -2.152503
C 190.732274 6.653347 -2.853581
C 191.129160 6.666571 -4.186468
O 191.138391 7.865085 -4.842214
C 191.506335 5.492079 -4.833983
C 191.484562 4.286454 -4.130886
C 192.181264 2.385985 -1.560081
C 193.501489 2.973617 -1.706321
C 194.386305 2.160041 -1.137872
C 193.665865 1.032329 -0.599628
N 192.345948 1.217699 -0.869279
H 195.407480 0.112748 0.143350
H 195.282472 -2.499139 1.158821
H 193.331849 -4.098025 2.165187
H 191.547540 -0.651209 0.523173
H 190.074763 -5.541872 1.311517
H 190.010632 -7.513982 2.802811
H 190.210208 -8.213292 4.925012
H 190.902841 -4.976990 6.175340
H 190.962281 -3.003992 4.656324
H 187.915013 -3.525893 2.757278
H 186.171620 -1.956465 1.737253
H 186.466506 1.616321 -2.385863
H 188.427444 3.165618 -3.425178
H 190.036039 0.897484 -0.263354
H 190.405273 5.417278 -1.109548
H 190.439651 7.571863 -2.356812
H 191.447648 7.695418 -5.745956
H 191.818316 5.486382 -5.871706
H 191.776729 3.356649 -4.615019
H 193.729556 3.908337 -2.185944
H 195.448236 2.314558 -1.076964
C 80.378109 0.016475 0.004676
C 81.836335 -0.005362 -0.013197
C 82.970263 -0.026115 -0.014688
C 84.331645 -0.038705 -0.016879
C 85.605864 -0.028399 -0.021645
C 86.794326 -0.009601 -0.027801
C 88.146687 0.015184 -0.011933
C 89.246954 0.016475 0.004676
C 99.369014 0.016475 0.004676
C 100.827241 -0.005362 -0.013197
C 101.961169 -0.026115 -0.014688
C 103.322550 -0.038705 -0.016879
C 104.596769 -0.028399 -0.021645
C 105.785232 -0.009601 -0.027801
C 107.137592 0.015184 -0.011933
C 108.237860 0.016475 0.004676
C 118.359920 0.016475 0.004676
C 119.818146 -0.005362 -0.013197
C 120.952074 -0.026115 -0.014688
C 122.313456 -0.038705 -0.016879
C 123.587675 -0.028399 -0.021645
C 124.776137 -0.009601 -0.027801
C 126.128498 0.015184 -0.011933
C 127.228765 0.016475 0.004676
C 137.350825 0.016475 0.004676
C 138.809051 -0.005362 -0.013197
C 139.942979 -0.026115 -0.014688
C 141.304361 -0.038705 -0.016879
C 142.578580 -0.028399 -0.021645
C 143.767042 -0.009601 -0.027801
C 145.119403 0.015184 -0.011933
C 146.219670 0.016475 0.004676
C 156.341730 0.016475 0.004676
C 157.799956 -0.005362 -0.013197
C 158.933884 -0.026115 -0.014688
C 160.295266 -0.038705 -0.016879
C 161.569485 -0.028399 -0.021645
C 162.757947 -0.009601 -0.027801
C 164.110308 0.015184 -0.011933
C 165.210576 0.016475 0.004676
C 175.332635 0.016475 0.004676
C 176.790862 -0.005362 -0.013197
C 177.924790 -0.026115 -0.014688
C 179.286171 -0.038705 -0.016879
C 180.560390 -0.028399 -0.021645
C 181.748853 -0.009601 -0.027801
C 183.101213 0.015184 -0.011933
C 184.201481 0.016475 0.004676
C 90.795207 -0.003873 0.001211
C 91.599348 -1.035445 -0.904106
C 91.088578 -1.766651 -1.961385
C 92.124417 -2.583946 -2.458178
C 93.244360 -2.330006 -1.686401
N 92.933330 -1.333083 -0.795178
C 94.647678 -3.064394 -1.820942
C 94.650215 -4.408476 -2.439111
C 95.122832 -4.581293 -3.748243
C 95.127764 -5.845317 -4.338190
C 94.648144 -6.933717 -3.613293
O 94.631728 -8.186540 -4.159249
C 94.157101 -6.780696 -2.322485
C 94.158071 -5.515294 -1.735574
C 95.777471 -2.463870 -1.370359
C 97.071043 -3.111633 -1.437688
C 97.983480 -2.274747 -0.946296
N 95.979454 -1.243971 -0.797871
C 97.310034 -1.060080 -0.537611
C 97.965953 -0.003873 0.001211
C 97.165943 1.301425 0.432006
C 97.710913 2.553204 0.634700
C 96.689698 3.385581 1.133682
C 95.528343 2.637194 1.170262
N 95.825824 1.375034 0.717299
C 94.112547 3.135801 1.705678
C 94.082823 4.352876 2.550531
C 94.231150 5.613092 1.959272
C 94.191378 6.771698 2.740267
C 93.965791 6.666226 4.111252
O 93.871295 7.813889 4.843670
C 93.822902 5.419242 4.720212
C 93.894118 4.262783 3.937291
C 92.975305 2.447437 1.393499
C 91.675834 2.864989 1.877591
C 90.769631 1.993697 1.431687
C 91.447483 1.012181 0.616951
N 92.776720 1.343543 0.629123
H 90.074275 -1.724350 -2.323852
H 92.065732 -3.296901 -3.273297
H 93.597771 -0.871656 -0.177793
H 95.492424 -3.714985 -4.297490
H 95.520674 -5.949541 -5.336911
H 94.932902 -8.101767 -5.077846
H 93.769902 -7.633696 -1.783033
H 93.774561 -5.371861 -0.727464
H 97.279504 -4.101314 -1.811615
H 99.032717 -2.490106 -0.866869
H 98.744660 2.827265 0.490618
H 96.795616 4.414201 1.455600
H 95.153247 0.625324 0.605219
H 94.379298 5.677517 0.883287
H 94.316734 7.746309 2.286058
H 93.259041 7.617224 5.580282
H 93.657238 5.326609 5.785446
H 93.779106 3.280673 4.385782
H 91.459701 3.723509 2.488670
H 89.713642 2.051199 1.630133
C 109.786112 -0.003873 0.001211
C 110.590254 -1.035445 -0.904106
C 110.079483 -1.766651 -1.961385
C 111.115322 -2.583946 -2.458178
C 112.235266 -2.330006 -1.686401
N 111.924235 -1.333083 -0.795178
C 113.638583 -3.064394 -1.820942
C 113.641120 -4.408476 -2.439111
C 114.113738 -4.581293 -3.748243
C 114.118669 -5.845317 -4.338190
C 113.639049 -6.933717 -3.613293
O 113.622633 -8.186540 -4.159249
C 113.148006 -6.780696 -2.322485
C 113.148976 -5.515294 -1.735574
C 114.768376 -2.463870 -1.370359
C 116.061949 -3.111633 -1.437688
C 116.974385 -2.274747 -0.946296
N 114.970360 -1.243971 -0.797871
C 116.300940 -1.060080 -0.537611
C 116.956859 -0.003873 0.001211
C 116.156848 1.301425 0.432006
C 116.701819 2.553204 0.634700
C 115.680603 3.385581 1.133682
C 114.519248 2.637194 1.170262
N 114.816730 1.375034 0.717299
C 113.103453 3.135801 1.705678
C 113.073728 4.352876 2.550531
C 113.222055 5.613092 1.959272
C 113.182283 6.771698 2.740267
C 112.956696 6.666226 4.111252
O 112.862200 7.813889 4.843670
C 112.813807 5.419242 4.720212
C 112.885023 4.262783 3.937291
C 111.966210 2.447437 1.393499
C 110.666739 2.864989 1.877591
C 109.760536 1.993697 1.431687
C 110.438388 1.012181 0.616951
N 111.767625 1.343543 0.629123
H 109.065180 -1.724350 -2.323852
H 111.056637 -3.296901 -3.273297
H 112.588676 -0.871656 -0.177793
H 114.483330 -3.714985 -4.297490
H 114.511580 -5.949541 -5.336911
H 113.923807 -8.101767 -5.077846
H 112.760807 -7.633696 -1.783033
H 112.765466 -5.371861 -0.727464
H 116.270409 -4.101314 -1.811615
H 118.023622 -2.490106 -0.866869
H 117.735565 2.827265 0.490618
H 115.786521 4.414201 1.455600
H 114.144153 0.625324 0.605219
H 113.370203 5.677517 0.883287
H 113.307639 7.746309 2.286058
H 112.249946 7.617224 5.580282
H 112.648143 5.326609 5.785446
H 112.770011 3.280673 4.385782
H 110.450606 3.723509 2.488670
H 108.704548 2.051199 1.630133
C 128.777017 -0.003873 0.001211
C 129.581159 -1.035445 -0.904106
C 129.070388 -1.766651 -1.961385
C 130.106228 -2.583946 -2.458178
C 131.226171 -2.330006 -1.686401
N 130.915141 -1.333083 -0.795178
C 132.629489 -3.064394 -1.820942
C 132.632026 -4.408476 -2.439111
C 133.104643 -4.581293 -3.748243
C 133.109575 -5.845317 -4.338190
C 132.629955 -6.933717 -3.613293
O 132.613538 -8.186540 -4.159249
C 132.138911 -6.780696 -2.322485
C 132.139881 -5.515294 -1.735574
C 133.759282 -2.463870 -1.370359
C 135.052854 -3.111633 -1.437688
C 135.965290 -2.274747 -0.946296
N 133.961265 -1.243971 -0.797871
C 135.291845 -1.060080 -0.537611
C 135.947764 -0.003873 0.001211
C 135.147754 1.301425 0.432006
C 135.692724 2.553204 0.634700
C 134.671508 3.385581 1.133682
C 133.510154 2.637194 1.170262
N 133.807635 1.375034 0.717299
C 132.094358 3.135801 1.705678
C 132.064633 4.352876 2.550531
C 132.212961 5.613092 1.959272
C 132.173188 6.771698 2.740267
C 131.947601 6.666226 4.111252
O 131.853106 7.813889 4.843670
C 131.804713 5.419242 4.720212
C 131.875928 4.262783 3.937291
C 130.957115 2.447437 1.393499
C 129.657645 2.864989 1.877591
C 128.751441 1.993697 1.431687
C 129.429294 1.012181 0.616951
N 130.758530 1.343543 0.629123
H 128.056085 -1.724350 -2.323852
H 130.047542 -3.296901 -3.273297
H 131.579581 -0.871656 -0.177793
H 133.474235 -3.714985 -4.297490
H 133.502485 -5.949541 -5.336911
H 132.914712 -8.101767 -5.077846
H 131.751712 -7.633696 -1.783033
H 131.756372 -5.371861 -0.727464
H 135.261315 -4.101314 -1.811615
H 137.014528 -2.490106 -0.866869
H 136.726470 2.827265 0.490618
H 134.777426 4.414201 1.455600
H 133.135058 0.625324 0.605219
H 132.361109 5.677517 0.883287
H 132.298545 7.746309 2.286058
H 131.240851 7.617224 5.580282
H 131.639049 5.326609 5.785446
H 131.760916 3.280673 4.385782
H 129.441512 3.723509 2.488670
H 127.695453 2.051199 1.630133
C 147.767922 -0.003873 0.001211
C 148.572064 -1.035445 -0.904106
C 148.061293 -1.766651 -1.961385
C 149.097133 -2.583946 -2.458178
C 150.217076 -2.330006 -1.686401
N 149.906046 -1.333083 -0.795178
C 151.620394 -3.064394 -1.820942
C 151.622931 -4.408476 -2.439111
C 152.095548 -4.581293 -3.748243
C 152.100480 -5.845317 -4.338190
C 151.620860 -6.933717 -3.613293
O 151.604444 -8.186540 -4.159249
C 151.129817 -6.780696 -2.322485
C 151.130787 -5.515294 -1.735574
C 152.750187 -2.463870 -1.370359
C 154.043759 -3.111633 -1.437688
C 154.956195 -2.274747 -0.946296
N 152.952170 -1.243971 -0.797871
C 154.282750 -1.060080 -0.537611
C 154.938669 -0.003873 0.001211
C 154.138659 1.301425 0.432006
C 154.683629 2.553204 0.634700
C 153.662413 3.385581 1.133682
C 152.501059 2.637194 1.170262
N 152.798540 1.375034 0.717299
C 151.085263 3.135801 1.705678
C 151.055539 4.352876 2.550531
C 151.203866 5.613092 1.959272
C 151.164094 6.771698 2.740267
C 150.938506 6.666226 4.111252
O 150.844011 7.813889 4.843670
C 150.795618 5.419242 4.720212
C 150.866834 4.262783 3.937291
C 149.948020 2.447437 1.393499
C 148.648550 2.864989 1.877591
C 147.742346 1.993697 1.431687
C 148.420199 1.012181 0.616951
N 149.749436 1.343543 0.629123
H 147.046991 -1.724350 -2.323852
H 149.038448 -3.296901 -3.273297
H 150.570487 -0.871656 -0.177793
H 152.465140 -3.714985 -4.297490
H 152.493390 -5.949541 -5.336911
H 151.905618 -8.101767 -5.077846
H 150.742618 -7.633696 -1.783033
H 150.747277 -5.371861 -0.727464
H 154.252220 -4.101314 -1.811615
H 156.005433 -2.490106 -0.866869
H 155.717376 2.827265 0.490618
H 153.768332 4.414201 1.455600
H 152.125963 0.625324 0.605219
H 151.352014 5.677517 0.883287
H 151.289450 7.746309 2.286058
H 150.231757 7.617224 5.580282
H 150.629954 5.326609 5.785446
H 150.751822 3.280673 4.385782
H 148.432417 3.723509 2.488670
H 146.686358 2.051199 1.630133
C 166.758828 -0.003873 0.001211
C 167.562969 -1.035445 -0.904106
C 167.052199 -1.766651 -1.961385
C 168.088038 -2.583946 -2.458178
C 169.207981 -2.330006 -1.686401
N 168.896951 -1.333083 -0.795178
C 170.611299 -3.064394 -1.820942
C 170.613836 -4.408476 -2.439111
C 171.086454 -4.581293 -3.748243
C 171.091385 -5.845317 -4.338190
C 170.611765 -6.933717 -3.613293
O 170.595349 -8.186540 -4.159249
C 170.120722 -6.780696 -2.322485
C 170.121692 -5.515294 -1.735574
C 171.741092 -2.463870 -1.370359
C 173.034664 -3.111633 -1.437688
C 173.947101 -2.274747 -0.946296
N 171.943075 -1.243971 -0.797871
C 173.273656 -1.060080 -0.537611
C 173.929574 -0.003873 0.001211
C 173.129564 1.301425 0.432006
C 173.674535 2.553204 0.634700
C 172.653319 3.385581 1.133682
C 171.491964 2.637194 1.170262
N 171.789445 1.375034 0.717299
C 170.076169 3.135801 1.705678
C 170.046444 4.352876 2.550531
C 170.194771 5.613092 1.959272
C 170.154999 6.771698 2.740267
C 169.929412 6.666226 4.111252
O 169.834916 7.813889 4.843670
C 169.786523 5.419242 4.720212
C 169.857739 4.262783 3.937291
C 168.938926 2.447437 1.393499
C 167.639455 2.864989 1.877591
C 166.733252 1.993697 1.431687
C 167.411104 1.012181 0.616951
N 168.740341 1.343543 0.629123
H 166.037896 -1.724350 -2.323852
H 168.029353 -3.296901 -3.273297
H 169.561392 -0.871656 -0.177793
H 171.456045 -3.714985 -4.297490
H 171.484296 -5.949541 -5.336911
H 170.896523 -8.101767 -5.077846
H 169.733523 -7.633696 -1.783033
H 169.738182 -5.371861 -0.727464
H 173.243125 -4.101314 -1.811615
H 174.996338 -2.490106 -0.866869
H 174.708281 2.827265 0.490618
H 172.759237 4.414201 1.455600
H 171.116868 0.625324 0.605219
H 170.342919 5.677517 0.883287
H 170.280355 7.746309 2.286058
H 169.222662 7.617224 5.580282
H 169.620859 5.326609 5.785446
H 169.742727 3.280673 4.385782
H 167.423322 3.723509 2.488670
H 165.677263 2.051199 1.630133
