146

C 8.967545 -0.044323 0.101960
C 9.696144 1.235745 0.615010
C 9.086019 2.342213 1.160488
C 10.107616 3.288266 1.433636
C 11.307547 2.728516 1.040644
N 11.049279 1.458763 0.587941
C 12.731082 3.426812 1.071666
C 13.859404 2.714233 0.806101
C 15.163201 3.343279 0.754180
C 16.063828 2.417244 0.447333
N 14.054900 1.386113 0.530858
C 15.385052 1.144118 0.304025
C 16.052381 -0.000833 -0.000583
C 15.277794 -1.382076 -0.109821
C 15.825364 -2.638687 0.063326
C 14.800776 -3.588319 -0.173104
C 13.653200 -2.885798 -0.471571
C 12.240466 -3.511028 -0.834117
C 12.209034 -4.897433 -1.354541
C 11.845720 -5.962030 -0.520052
C 11.826272 -7.275955 -1.003940
C 11.394744 -8.402583 -0.116143
C 12.161258 -7.513959 -2.344643
C 12.543892 -6.461524 -3.188480
C 12.874238 -6.713410 -4.627606
C 12.555897 -5.154286 -2.685618
C 11.115237 -2.765226 -0.680348
C 9.790899 -3.264861 -1.005487
C 8.906354 -2.309014 -0.737094
C 9.630924 -1.163810 -0.242676
N 10.952625 -1.483027 -0.234106
N 13.940506 -1.543975 -0.379742
C 12.770214 4.882575 1.350824
C 13.040848 5.346664 2.643857
C 13.069137 6.719391 2.919325
C 13.405733 7.199842 4.297466
C 12.839493 7.628978 1.877046
C 12.550768 7.180071 0.580217
C 12.332599 8.152835 -0.538003
C 12.528286 5.803270 0.324742
H 7.888793 -0.010304 0.008169
H 8.026741 2.461703 1.327536
H 9.979691 4.276977 1.848890
H 11.750933 0.793262 0.271678
H 15.374389 4.384672 0.920206
H 17.116382 2.602710 0.336567
H 16.851533 -2.852913 0.320097
H 14.889309 -4.663835 -0.133122
H 11.572978 -5.740337 0.510408
H 10.341628 -8.641338 -0.298232
H 12.000467 -9.296117 -0.303820
H 11.517222 -8.143050 0.941237
H 12.123667 -8.528146 -2.734056
H 13.619056 -5.996802 -4.988105
H 13.295880 -7.714888 -4.762773
H 11.972177 -6.624447 -5.240236
H 12.829567 -4.313551 -3.320976
H 9.560907 -4.238648 -1.398898
H 7.841644 -2.368844 -0.871461
H 13.253193 -0.797612 -0.446651
H 13.236647 4.615147 3.426112
H 13.016136 6.513207 5.056625
H 12.960938 8.181618 4.489113
H 14.490638 7.277238 4.412247
H 12.885841 8.696352 2.076393
H 11.918353 9.094574 -0.162896
H 13.280488 8.361329 -1.042696
H 11.621381 7.754470 -1.268940
H 12.327408 5.423332 -0.675590
C 34.415967 -0.015103 0.109884
C 33.687369 -1.379002 -0.094012
C 34.297494 -2.609464 -0.182222
C 33.275897 -3.563910 -0.424419
C 32.075966 -2.882307 -0.480802
N 32.334234 -1.557795 -0.230037
C 30.652430 -3.500617 -0.806795
C 29.524109 -2.751493 -0.676000
C 28.220312 -3.268139 -1.038590
C 27.319684 -2.313945 -0.835589
N 29.328612 -1.466260 -0.242599
C 27.998461 -1.142823 -0.316108
C 27.331132 -0.000833 -0.000583
C 28.105719 1.246384 0.602919
C 27.558149 2.243387 1.387162
C 28.582736 3.182372 1.662855
C 29.730312 2.726866 1.050375
C 31.143047 3.449599 1.053346
C 31.174479 4.908994 1.304597
C 31.537793 5.406189 2.562585
C 31.557241 6.784576 2.808752
C 31.988769 7.308374 4.144083
C 31.222255 7.667272 1.771941
C 30.839621 7.185296 0.512029
C 30.509275 8.129695 -0.602709
C 30.827615 5.803095 0.285616
C 32.268275 2.728281 0.809286
C 33.592614 3.323727 0.781092
C 34.477158 2.363231 0.529845
C 33.752589 1.125133 0.378001
N 32.430888 1.396293 0.546658
N 29.443007 1.522464 0.451762
C 30.613299 -4.897987 -1.301300
C 30.342665 -5.951716 -0.419843
C 30.314376 -7.275559 -0.875584
C 29.977780 -8.386404 0.071057
C 30.544020 -7.534007 -2.234591
C 30.832745 -6.491461 -3.126994
C 31.050914 -6.766068 -4.583454
C 30.855227 -5.174203 -2.651940
H 35.494720 0.002919 0.011754
H 35.356772 -2.796975 -0.098421
H 33.403821 -4.626959 -0.565526
H 31.632580 -0.823689 -0.166779
H 28.009124 -4.250749 -1.421399
H 26.267131 -2.418048 -1.024875
H 26.531980 2.298551 1.716983
H 28.494204 4.090359 2.240689
H 31.810535 4.694298 3.339892
H 33.041884 7.606411 4.107553
H 31.383046 8.174317 4.433510
H 31.866291 6.550226 4.925506
H 31.259846 8.739254 1.948220
H 29.764457 7.693369 -1.275840
H 30.087633 9.062268 -0.213433
H 31.411336 8.362406 -1.176359
H 30.553946 5.398499 -0.687430
H 33.822606 4.362862 0.933511
H 35.541869 2.482744 0.444110
H 30.130320 0.912143 0.016971
H 30.146866 -5.715586 0.624802
H 30.367377 -8.177340 1.073096
H 30.422575 -9.330507 -0.259523
H 28.892875 -8.511183 0.131015
H 30.497672 -8.555872 -2.601767
H 31.465160 -7.768299 -4.735479
H 30.103025 -6.691041 -5.124338
H 31.762132 -6.053019 -5.013017
H 31.056104 -4.340963 -3.323303
C 17.193158 0.014368 0.010051
C 18.651384 -0.007468 -0.007823
C 19.785312 -0.028222 -0.009314
C 21.146694 -0.040812 -0.011505
C 22.420913 -0.030505 -0.016270
C 23.609375 -0.011707 -0.022426
C 24.961736 0.013077 -0.006558
C 26.062003 0.014368 0.010051
