 xtb: 6.5.1 (b24c23e)
          07282205143D

146159  0     0  0            999 V2000
    9.0275    0.1161   -0.0012 C   0  0  0  0  0  0  0  0  0  0  0  0
    9.6340    1.3140    0.3549 C   0  0  0  0  0  0  0  0  0  0  0  0
    8.9807    2.5212    0.7308 C   0  0  0  0  0  0  0  0  0  0  0  0
    9.9420    3.4560    0.9952 C   0  0  0  0  0  0  0  0  0  0  0  0
   11.2136    2.8526    0.7801 C   0  0  0  0  0  0  0  0  0  0  0  0
   10.9770    1.5605    0.4043 N   0  0  0  0  0  0  0  0  0  0  0  0
   12.4755    3.4370    0.9346 C   0  0  0  0  0  0  0  0  0  0  0  0
   13.6925    2.7804    0.7417 C   0  0  0  0  0  0  0  0  0  0  0  0
   14.9873    3.4283    0.8496 C   0  0  0  0  0  0  0  0  0  0  0  0
   15.9122    2.4793    0.5966 C   0  0  0  0  0  0  0  0  0  0  0  0
   13.8529    1.4687    0.4114 N   0  0  0  0  0  0  0  0  0  0  0  0
   15.1811    1.2564    0.3269 C   0  0  0  0  0  0  0  0  0  0  0  0
   15.8230    0.0362    0.0304 C   0  0  0  0  0  0  0  0  0  0  0  0
   15.1891   -1.1834   -0.2755 C   0  0  0  0  0  0  0  0  0  0  0  0
   15.8346   -2.4193   -0.5441 C   0  0  0  0  0  0  0  0  0  0  0  0
   14.8689   -3.3515   -0.8051 C   0  0  0  0  0  0  0  0  0  0  0  0
   13.6028   -2.7098   -0.7124 C   0  0  0  0  0  0  0  0  0  0  0  0
   12.3429   -3.2878   -0.8986 C   0  0  0  0  0  0  0  0  0  0  0  0
   12.3188   -4.7191   -1.2888 C   0  0  0  0  0  0  0  0  0  0  0  0
   11.7091   -5.6644   -0.4648 C   0  0  0  0  0  0  0  0  0  0  0  0
   11.6955   -7.0083   -0.8217 C   0  0  0  0  0  0  0  0  0  0  0  0
   11.0273   -8.0245    0.0647 C   0  0  0  0  0  0  0  0  0  0  0  0
   12.2918   -7.4036   -2.0157 C   0  0  0  0  0  0  0  0  0  0  0  0
   12.9023   -6.4720   -2.8499 C   0  0  0  0  0  0  0  0  0  0  0  0
   13.5269   -6.9068   -4.1482 C   0  0  0  0  0  0  0  0  0  0  0  0
   12.9138   -5.1313   -2.4805 C   0  0  0  0  0  0  0  0  0  0  0  0
   11.1245   -2.6180   -0.7468 C   0  0  0  0  0  0  0  0  0  0  0  0
    9.8237   -3.2207   -0.9929 C   0  0  0  0  0  0  0  0  0  0  0  0
    8.9058   -2.2665   -0.7379 C   0  0  0  0  0  0  0  0  0  0  0  0
    9.6449   -1.0789   -0.3472 C   0  0  0  0  0  0  0  0  0  0  0  0
   10.9778   -1.3250   -0.3720 N   0  0  0  0  0  0  0  0  0  0  0  0
   13.8485   -1.4031   -0.3807 N   0  0  0  0  0  0  0  0  0  0  0  0
   12.5058    4.8666    1.3336 C   0  0  0  0  0  0  0  0  0  0  0  0
   13.0911    5.2451    2.5403 C   0  0  0  0  0  0  0  0  0  0  0  0
   13.1238    6.5828    2.9215 C   0  0  0  0  0  0  0  0  0  0  0  0
   13.7711    6.9796    4.2207 C   0  0  0  0  0  0  0  0  0  0  0  0
   12.5707    7.5442    2.0820 C   0  0  0  0  0  0  0  0  0  0  0  0
   11.9826    7.1819    0.8731 C   0  0  0  0  0  0  0  0  0  0  0  0
   11.4098    8.2346   -0.0371 C   0  0  0  0  0  0  0  0  0  0  0  0
   11.9504    5.8415    0.5053 C   0  0  0  0  0  0  0  0  0  0  0  0
    7.9422    0.1243   -0.0076 H   0  0  0  0  0  0  0  0  0  0  0  0
    7.9110    2.6434    0.7931 H   0  0  0  0  0  0  0  0  0  0  0  0
    9.7904    4.4732    1.3182 H   0  0  0  0  0  0  0  0  0  0  0  0
   11.7034    0.8836    0.1967 H   0  0  0  0  0  0  0  0  0  0  0  0
   15.1445    4.4707    1.0747 H   0  0  0  0  0  0  0  0  0  0  0  0
   16.9863    2.5734    0.5803 H   0  0  0  0  0  0  0  0  0  0  0  0
   16.9024   -2.5676   -0.5308 H   0  0  0  0  0  0  0  0  0  0  0  0
   15.0166   -4.3946   -1.0325 H   0  0  0  0  0  0  0  0  0  0  0  0
   11.2625   -5.3468    0.4710 H   0  0  0  0  0  0  0  0  0  0  0  0
    9.9992   -8.1868   -0.2670 H   0  0  0  0  0  0  0  0  0  0  0  0
   11.5510   -8.9798    0.0222 H   0  0  0  0  0  0  0  0  0  0  0  0
   11.0007   -7.6816    1.0991 H   0  0  0  0  0  0  0  0  0  0  0  0
   12.2840   -8.4515   -2.2973 H   0  0  0  0  0  0  0  0  0  0  0  0
   14.3321   -6.2312   -4.4374 H   0  0  0  0  0  0  0  0  0  0  0  0
   13.9257   -7.9182   -4.0674 H   0  0  0  0  0  0  0  0  0  0  0  0
   12.7761   -6.9004   -4.9417 H   0  0  0  0  0  0  0  0  0  0  0  0
   13.3754   -4.3945   -3.1289 H   0  0  0  0  0  0  0  0  0  0  0  0
    9.6613   -4.2330   -1.3265 H   0  0  0  0  0  0  0  0  0  0  0  0
    7.8309   -2.3275   -0.8066 H   0  0  0  0  0  0  0  0  0  0  0  0
   13.1258   -0.7069   -0.2308 H   0  0  0  0  0  0  0  0  0  0  0  0
   13.5080    4.4853    3.1923 H   0  0  0  0  0  0  0  0  0  0  0  0
   13.5446    6.2536    5.0023 H   0  0  0  0  0  0  0  0  0  0  0  0
   13.4300    7.9634    4.5428 H   0  0  0  0  0  0  0  0  0  0  0  0
   14.8560    7.0163    4.0986 H   0  0  0  0  0  0  0  0  0  0  0  0
   12.5955    8.5893    2.3730 H   0  0  0  0  0  0  0  0  0  0  0  0
   10.9772    9.0524    0.5399 H   0  0  0  0  0  0  0  0  0  0  0  0
   12.1993    8.6470   -0.6697 H   0  0  0  0  0  0  0  0  0  0  0  0
   10.6408    7.8132   -0.6846 H   0  0  0  0  0  0  0  0  0  0  0  0
   11.5073    5.5489   -0.4404 H   0  0  0  0  0  0  0  0  0  0  0  0
   34.3590   -0.1019   -0.0580 C   0  0  0  0  0  0  0  0  0  0  0  0
   33.7532   -1.3156   -0.3576 C   0  0  0  0  0  0  0  0  0  0  0  0
   34.4076   -2.5467   -0.6429 C   0  0  0  0  0  0  0  0  0  0  0  0
   33.4471   -3.4875   -0.8884 C   0  0  0  0  0  0  0  0  0  0  0  0
   32.1749   -2.8589   -0.7703 C   0  0  0  0  0  0  0  0  0  0  0  0
   32.4105   -1.5541   -0.4410 N   0  0  0  0  0  0  0  0  0  0  0  0
   30.9133   -3.4420   -0.9328 C   0  0  0  0  0  0  0  0  0  0  0  0
   29.6962   -2.7781   -0.7663 C   0  0  0  0  0  0  0  0  0  0  0  0
   28.4011   -3.3917   -0.9999 C   0  0  0  0  0  0  0  0  0  0  0  0
   27.4764   -2.4453   -0.7366 C   0  0  0  0  0  0  0  0  0  0  0  0
   29.5360   -1.4797   -0.3872 N   0  0  0  0  0  0  0  0  0  0  0  0
   28.2078   -1.2539   -0.3512 C   0  0  0  0  0  0  0  0  0  0  0  0
   27.5659   -0.0514    0.0103 C   0  0  0  0  0  0  0  0  0  0  0  0
   28.1992    1.1558    0.3628 C   0  0  0  0  0  0  0  0  0  0  0  0
   27.5527    2.3573    0.7562 C   0  0  0  0  0  0  0  0  0  0  0  0
   28.5176    3.2948    1.0012 C   0  0  0  0  0  0  0  0  0  0  0  0
   29.7841    2.6957    0.7557 C   0  0  0  0  0  0  0  0  0  0  0  0
   31.0437    3.2898    0.8858 C   0  0  0  0  0  0  0  0  0  0  0  0
   31.0672    4.7223    1.2709 C   0  0  0  0  0  0  0  0  0  0  0  0
   31.6836    5.1240    2.4554 C   0  0  0  0  0  0  0  0  0  0  0  0
   31.6977    6.4645    2.8250 C   0  0  0  0  0  0  0  0  0  0  0  0
   32.3747    6.8956    4.0980 C   0  0  0  0  0  0  0  0  0  0  0  0
   31.0940    7.4070    1.9978 C   0  0  0  0  0  0  0  0  0  0  0  0
   30.4760    7.0224    0.8117 C   0  0  0  0  0  0  0  0  0  0  0  0
   29.8425    8.0519   -0.0847 C   0  0  0  0  0  0  0  0  0  0  0  0
   30.4652    5.6786    0.4538 C   0  0  0  0  0  0  0  0  0  0  0  0
   32.2622    2.6350    0.6788 C   0  0  0  0  0  0  0  0  0  0  0  0
   33.5633    3.2789    0.7714 C   0  0  0  0  0  0  0  0  0  0  0  0
   34.4809    2.3260    0.5107 C   0  0  0  0  0  0  0  0  0  0  0  0
   33.7415    1.1040    0.2475 C   0  0  0  0  0  0  0  0  0  0  0  0
   32.4087    1.3296    0.3496 N   0  0  0  0  0  0  0  0  0  0  0  0
   29.5395    1.4001    0.3821 N   0  0  0  0  0  0  0  0  0  0  0  0
   30.8834   -4.8770   -1.3109 C   0  0  0  0  0  0  0  0  0  0  0  0
   30.2917   -5.8121   -0.4638 C   0  0  0  0  0  0  0  0  0  0  0  0
   30.2583   -7.1592   -0.8105 C   0  0  0  0  0  0  0  0  0  0  0  0
   29.6033   -8.1560    0.1070 C   0  0  0  0  0  0  0  0  0  0  0  0
   30.8179   -7.5662   -2.0171 C   0  0  0  0  0  0  0  0  0  0  0  0
   31.4128   -6.6442   -2.8741 C   0  0  0  0  0  0  0  0  0  0  0  0
   31.9933   -7.0949   -4.1874 C   0  0  0  0  0  0  0  0  0  0  0  0
   31.4450   -5.3015   -2.5148 C   0  0  0  0  0  0  0  0  0  0  0  0
   35.4443   -0.1056   -0.0667 H   0  0  0  0  0  0  0  0  0  0  0  0
   35.4773   -2.6831   -0.6499 H   0  0  0  0  0  0  0  0  0  0  0  0
   33.5997   -4.5284   -1.1235 H   0  0  0  0  0  0  0  0  0  0  0  0
   31.6833   -0.8658   -0.2782 H   0  0  0  0  0  0  0  0  0  0  0  0
   28.2434   -4.4045   -1.3335 H   0  0  0  0  0  0  0  0  0  0  0  0
   26.4023   -2.5185   -0.7968 H   0  0  0  0  0  0  0  0  0  0  0  0
   26.4849    2.4773    0.8436 H   0  0  0  0  0  0  0  0  0  0  0  0
   28.3689    4.3095    1.3326 H   0  0  0  0  0  0  0  0  0  0  0  0
   32.1352    4.3785    3.1006 H   0  0  0  0  0  0  0  0  0  0  0  0
   33.4030    7.1981    3.8868 H   0  0  0  0  0  0  0  0  0  0  0  0
   31.8571    7.7454    4.5439 H   0  0  0  0  0  0  0  0  0  0  0  0
   32.4020    6.0796    4.8203 H   0  0  0  0  0  0  0  0  0  0  0  0
   31.1017    8.4539    2.2832 H   0  0  0  0  0  0  0  0  0  0  0  0
   29.0378    7.6117   -0.6739 H   0  0  0  0  0  0  0  0  0  0  0  0
   29.4407    8.8801    0.4995 H   0  0  0  0  0  0  0  0  0  0  0  0
   30.5885    8.4535   -0.7742 H   0  0  0  0  0  0  0  0  0  0  0  0
   29.9987    5.3690   -0.4751 H   0  0  0  0  0  0  0  0  0  0  0  0
   33.7264    4.3211    0.9941 H   0  0  0  0  0  0  0  0  0  0  0  0
   35.5560    2.4127    0.4834 H   0  0  0  0  0  0  0  0  0  0  0  0
   30.2632    0.7248    0.1590 H   0  0  0  0  0  0  0  0  0  0  0  0
   29.8701   -5.4849    0.4803 H   0  0  0  0  0  0  0  0  0  0  0  0
   29.8319   -7.9296    1.1490 H   0  0  0  0  0  0  0  0  0  0  0  0
   29.9363   -9.1697   -0.1155 H   0  0  0  0  0  0  0  0  0  0  0  0
   28.5186   -8.1169   -0.0165 H   0  0  0  0  0  0  0  0  0  0  0  0
   30.7929   -8.6153   -2.2938 H   0  0  0  0  0  0  0  0  0  0  0  0
   32.4274   -8.0910   -4.0978 H   0  0  0  0  0  0  0  0  0  0  0  0
   31.2077   -7.1349   -4.9455 H   0  0  0  0  0  0  0  0  0  0  0  0
   32.7627   -6.4034   -4.5312 H   0  0  0  0  0  0  0  0  0  0  0  0
   31.8930   -4.5723   -3.1811 H   0  0  0  0  0  0  0  0  0  0  0  0
   17.2278    0.0219    0.0367 C   0  0  0  0  0  0  0  0  0  0  0  0
   18.4526    0.0078    0.0401 C   0  0  0  0  0  0  0  0  0  0  0  0
   19.7947   -0.0023    0.0426 C   0  0  0  0  0  0  0  0  0  0  0  0
   21.0258   -0.0105    0.0425 C   0  0  0  0  0  0  0  0  0  0  0  0
   22.3632   -0.0178    0.0413 C   0  0  0  0  0  0  0  0  0  0  0  0
   23.5941   -0.0272    0.0375 C   0  0  0  0  0  0  0  0  0  0  0  0
   24.9362   -0.0340    0.0312 C   0  0  0  0  0  0  0  0  0  0  0  0
   26.1611   -0.0429    0.0231 C   0  0  0  0  0  0  0  0  0  0  0  0
  1  2  4  0  0  0  0
  2  3  4  0  0  0  0
  3  4  2  0  0  0  0
  4  5  4  0  0  0  0
  2  6  4  0  0  0  0
  5  6  4  0  0  0  0
  5  7  4  0  0  0  0
  7  8  4  0  0  0  0
  8  9  1  0  0  0  0
  9 10  2  0  0  0  0
  8 11  4  0  0  0  0
 10 12  1  0  0  0  0
 11 12  4  0  0  0  0
 12 13  4  0  0  0  0
 13 14  4  0  0  0  0
 14 15  4  0  0  0  0
 15 16  2  0  0  0  0
 16 17  4  0  0  0  0
 17 18  4  0  0  0  0
 18 19  1  0  0  0  0
 19 20  4  0  0  0  0
 20 21  4  0  0  0  0
 21 22  1  0  0  0  0
 21 23  4  0  0  0  0
 23 24  4  0  0  0  0
 24 25  1  0  0  0  0
 19 26  4  0  0  0  0
 24 26  4  0  0  0  0
 18 27  4  0  0  0  0
 27 28  1  0  0  0  0
 28 29  2  0  0  0  0
  1 30  4  0  0  0  0
 29 30  1  0  0  0  0
 27 31  4  0  0  0  0
 30 31  4  0  0  0  0
 14 32  4  0  0  0  0
 17 32  4  0  0  0  0
  7 33  1  0  0  0  0
 33 34  4  0  0  0  0
 34 35  4  0  0  0  0
 35 36  1  0  0  0  0
 35 37  4  0  0  0  0
 37 38  4  0  0  0  0
 38 39  1  0  0  0  0
 33 40  4  0  0  0  0
 38 40  4  0  0  0  0
  1 41  1  0  0  0  0
  3 42  1  0  0  0  0
  4 43  1  0  0  0  0
  6 44  1  0  0  0  0
  9 45  1  0  0  0  0
 10 46  1  0  0  0  0
 15 47  1  0  0  0  0
 16 48  1  0  0  0  0
 20 49  1  0  0  0  0
 22 50  1  0  0  0  0
 22 51  1  0  0  0  0
 22 52  1  0  0  0  0
 23 53  1  0  0  0  0
 25 54  1  0  0  0  0
 25 55  1  0  0  0  0
 25 56  1  0  0  0  0
 26 57  1  0  0  0  0
 28 58  1  0  0  0  0
 29 59  1  0  0  0  0
 32 60  1  0  0  0  0
 34 61  1  0  0  0  0
 36 62  1  0  0  0  0
 36 63  1  0  0  0  0
 36 64  1  0  0  0  0
 37 65  1  0  0  0  0
 39 66  1  0  0  0  0
 39 67  1  0  0  0  0
 39 68  1  0  0  0  0
 40 69  1  0  0  0  0
 70 71  4  0  0  0  0
 71 72  4  0  0  0  0
 72 73  2  0  0  0  0
 73 74  4  0  0  0  0
 71 75  4  0  0  0  0
 74 75  4  0  0  0  0
 74 76  4  0  0  0  0
 76 77  4  0  0  0  0
 77 78  1  0  0  0  0
 78 79  2  0  0  0  0
 77 80  4  0  0  0  0
 79 81  1  0  0  0  0
 80 81  4  0  0  0  0
 81 82  4  0  0  0  0
 82 83  4  0  0  0  0
 83 84  4  0  0  0  0
 84 85  2  0  0  0  0
 85 86  4  0  0  0  0
 86 87  4  0  0  0  0
 87 88  1  0  0  0  0
 88 89  4  0  0  0  0
 89 90  4  0  0  0  0
 90 91  1  0  0  0  0
 90 92  4  0  0  0  0
 92 93  4  0  0  0  0
 93 94  1  0  0  0  0
 88 95  4  0  0  0  0
 93 95  4  0  0  0  0
 87 96  4  0  0  0  0
 96 97  1  0  0  0  0
 97 98  2  0  0  0  0
 70 99  4  0  0  0  0
 98 99  1  0  0  0  0
 96100  4  0  0  0  0
 99100  4  0  0  0  0
 83101  4  0  0  0  0
 86101  4  0  0  0  0
 76102  1  0  0  0  0
102103  4  0  0  0  0
103104  4  0  0  0  0
104105  1  0  0  0  0
104106  4  0  0  0  0
106107  4  0  0  0  0
107108  1  0  0  0  0
102109  4  0  0  0  0
107109  4  0  0  0  0
 70110  1  0  0  0  0
 72111  1  0  0  0  0
 73112  1  0  0  0  0
 75113  1  0  0  0  0
 78114  1  0  0  0  0
 79115  1  0  0  0  0
 84116  1  0  0  0  0
 85117  1  0  0  0  0
 89118  1  0  0  0  0
 91119  1  0  0  0  0
 91120  1  0  0  0  0
 91121  1  0  0  0  0
 92122  1  0  0  0  0
 94123  1  0  0  0  0
 94124  1  0  0  0  0
 94125  1  0  0  0  0
 95126  1  0  0  0  0
 97127  1  0  0  0  0
 98128  1  0  0  0  0
101129  1  0  0  0  0
103130  1  0  0  0  0
105131  1  0  0  0  0
105132  1  0  0  0  0
105133  1  0  0  0  0
106134  1  0  0  0  0
108135  1  0  0  0  0
108136  1  0  0  0  0
108137  1  0  0  0  0
109138  1  0  0  0  0
 13139  4  0  0  0  0
139140  3  0  0  0  0
140141  4  0  0  0  0
141142  3  0  0  0  0
142143  4  0  0  0  0
143144  3  0  0  0  0
144145  4  0  0  0  0
 82146  4  0  0  0  0
145146  3  0  0  0  0
M  END
