 xtb: 6.5.1 (b24c23e)
          07302204183D

154185  0     0  0            999 V2000
   24.1928   -0.0240   -0.0259 Cu  0  0  0  0  0  0  0  0  0  0  0  0
   20.7687   -0.0525   -0.0530 C   0  0  0  0  0  0  0  0  0  0  0  0
   21.4122   -0.9204   -0.9236 C   0  0  0  0  0  0  0  0  0  0  0  0
   20.7529   -1.8225   -1.8279 C   0  0  0  0  0  0  0  0  0  0  0  0
   21.7237   -2.4914   -2.4983 C   0  0  0  0  0  0  0  0  0  0  0  0
   22.9839   -2.0036   -2.0091 C   0  0  0  0  0  0  0  0  0  0  0  0
   22.7641   -1.0523   -1.0557 N   0  0  0  0  0  0  0  0  0  0  0  0
   24.2290   -2.4360   -2.4423 C   0  0  0  0  0  0  0  0  0  0  0  0
   25.4599   -1.9863   -1.9885 C   0  0  0  0  0  0  0  0  0  0  0  0
   26.7305   -2.4582   -2.4594 C   0  0  0  0  0  0  0  0  0  0  0  0
   27.6838   -1.7775   -1.7735 C   0  0  0  0  0  0  0  0  0  0  0  0
   25.6574   -1.0305   -1.0285 N   0  0  0  0  0  0  0  0  0  0  0  0
   27.0013   -0.8862   -0.8807 C   0  0  0  0  0  0  0  0  0  0  0  0
   27.6388    0.0000    0.0063 C   0  0  0  0  0  0  0  0  0  0  0  0
   26.9728    0.8770    0.8811 C   0  0  0  0  0  0  0  0  0  0  0  0
   27.6263    1.7805    1.7833 C   0  0  0  0  0  0  0  0  0  0  0  0
   26.6510    2.4489    2.4502 C   0  0  0  0  0  0  0  0  0  0  0  0
   25.3960    1.9566    1.9588 C   0  0  0  0  0  0  0  0  0  0  0  0
   25.6245    1.0016    1.0048 N   0  0  0  0  0  0  0  0  0  0  0  0
   24.1506    2.3875    2.3910 C   0  0  0  0  0  0  0  0  0  0  0  0
   22.9198    1.9336    1.9392 C   0  0  0  0  0  0  0  0  0  0  0  0
   21.6441    2.3996    2.4089 C   0  0  0  0  0  0  0  0  0  0  0  0
   20.6953    1.7150    1.7230 C   0  0  0  0  0  0  0  0  0  0  0  0
   21.3838    0.8251    0.8285 C   0  0  0  0  0  0  0  0  0  0  0  0
   22.7309    0.9795    0.9820 N   0  0  0  0  0  0  0  0  0  0  0  0
   19.6837   -0.0610   -0.0621 H   0  0  0  0  0  0  0  0  0  0  0  0
   19.6828   -1.9192   -1.9248 H   0  0  0  0  0  0  0  0  0  0  0  0
   21.6133   -3.2496   -3.2578 H   0  0  0  0  0  0  0  0  0  0  0  0
   24.2418   -3.2017   -3.2112 H   0  0  0  0  0  0  0  0  0  0  0  0
   26.8621   -3.2136   -3.2181 H   0  0  0  0  0  0  0  0  0  0  0  0
   28.7558   -1.8621   -1.8557 H   0  0  0  0  0  0  0  0  0  0  0  0
   28.6953    1.8811    1.8844 H   0  0  0  0  0  0  0  0  0  0  0  0
   26.7582    3.2087    3.2084 H   0  0  0  0  0  0  0  0  0  0  0  0
   24.1384    3.1548    3.1585 H   0  0  0  0  0  0  0  0  0  0  0  0
   21.5089    3.1545    3.1677 H   0  0  0  0  0  0  0  0  0  0  0  0
   19.6224    1.7934    1.8034 H   0  0  0  0  0  0  0  0  0  0  0  0
   64.7091    0.0034   -0.0124 Cu  0  0  0  0  0  0  0  0  0  0  0  0
   68.1331    0.0528   -0.0081 C   0  0  0  0  0  0  0  0  0  0  0  0
   67.4859    1.2787   -0.0675 C   0  0  0  0  0  0  0  0  0  0  0  0
   68.1414    2.5565   -0.1284 C   0  0  0  0  0  0  0  0  0  0  0  0
   67.1679    3.4998   -0.1686 C   0  0  0  0  0  0  0  0  0  0  0  0
   65.9097    2.8062   -0.1321 C   0  0  0  0  0  0  0  0  0  0  0  0
   66.1335    1.4613   -0.0734 N   0  0  0  0  0  0  0  0  0  0  0  0
   64.6629    3.4144   -0.1482 C   0  0  0  0  0  0  0  0  0  0  0  0
   63.4338    2.7727   -0.1132 C   0  0  0  0  0  0  0  0  0  0  0  0
   62.1611    3.4356   -0.1298 C   0  0  0  0  0  0  0  0  0  0  0  0
   61.2106    2.4676   -0.0907 C   0  0  0  0  0  0  0  0  0  0  0  0
   63.2403    1.4186   -0.0627 N   0  0  0  0  0  0  0  0  0  0  0  0
   61.8966    1.2083   -0.0504 C   0  0  0  0  0  0  0  0  0  0  0  0
   61.2635   -0.0463   -0.0172 C   0  0  0  0  0  0  0  0  0  0  0  0
   61.9322   -1.2821    0.0183 C   0  0  0  0  0  0  0  0  0  0  0  0
   61.2828   -2.5606    0.0592 C   0  0  0  0  0  0  0  0  0  0  0  0
   62.2608   -3.5007    0.1026 C   0  0  0  0  0  0  0  0  0  0  0  0
   63.5139   -2.8014    0.0876 C   0  0  0  0  0  0  0  0  0  0  0  0
   63.2815   -1.4535    0.0342 N   0  0  0  0  0  0  0  0  0  0  0  0
   64.7609   -3.4074    0.1253 C   0  0  0  0  0  0  0  0  0  0  0  0
   65.9899   -2.7639    0.1099 C   0  0  0  0  0  0  0  0  0  0  0  0
   67.2675   -3.4209    0.1472 C   0  0  0  0  0  0  0  0  0  0  0  0
   68.2135   -2.4499    0.1095 C   0  0  0  0  0  0  0  0  0  0  0  0
   67.5215   -1.1915    0.0492 C   0  0  0  0  0  0  0  0  0  0  0  0
   66.1750   -1.4130    0.0528 N   0  0  0  0  0  0  0  0  0  0  0  0
   69.2181    0.0685   -0.0067 H   0  0  0  0  0  0  0  0  0  0  0  0
   69.2111    2.6963   -0.1384 H   0  0  0  0  0  0  0  0  0  0  0  0
   67.2751    4.5721   -0.2184 H   0  0  0  0  0  0  0  0  0  0  0  0
   64.6468    4.4986   -0.1922 H   0  0  0  0  0  0  0  0  0  0  0  0
   62.0267    4.5052   -0.1672 H   0  0  0  0  0  0  0  0  0  0  0  0
   60.1383    2.5826   -0.0901 H   0  0  0  0  0  0  0  0  0  0  0  0
   60.2142   -2.7066    0.0561 H   0  0  0  0  0  0  0  0  0  0  0  0
   62.1571   -4.5736    0.1423 H   0  0  0  0  0  0  0  0  0  0  0  0
   64.7758   -4.4916    0.1704 H   0  0  0  0  0  0  0  0  0  0  0  0
   67.4057   -4.4898    0.1951 H   0  0  0  0  0  0  0  0  0  0  0  0
   69.2868   -2.5589    0.1204 H   0  0  0  0  0  0  0  0  0  0  0  0
   30.2665    0.0155    0.0201 C   0  0  0  0  0  0  0  0  0  0  0  0
   29.0448    0.0098    0.0162 C   0  0  0  0  0  0  0  0  0  0  0  0
   31.6163    0.0194    0.0210 C   0  0  0  0  0  0  0  0  0  0  0  0
   32.8383    0.0177    0.0188 C   0  0  0  0  0  0  0  0  0  0  0  0
   43.7739   -0.0223   -0.0250 C   0  0  0  0  0  0  0  0  0  0  0  0
   42.5520   -0.0162   -0.0188 C   0  0  0  0  0  0  0  0  0  0  0  0
   45.1234   -0.0289   -0.0309 C   0  0  0  0  0  0  0  0  0  0  0  0
   46.3454   -0.0329   -0.0319 C   0  0  0  0  0  0  0  0  0  0  0  0
   57.2827   -0.0778   -0.0194 C   0  0  0  0  0  0  0  0  0  0  0  0
   56.0613   -0.0738   -0.0225 C   0  0  0  0  0  0  0  0  0  0  0  0
   58.6343   -0.0726   -0.0187 C   0  0  0  0  0  0  0  0  0  0  0  0
   59.8554   -0.0645   -0.0178 C   0  0  0  0  0  0  0  0  0  0  0  0
   37.6955    0.0015    0.0014 Cu  0  0  0  0  0  0  0  0  0  0  0  0
   34.2437    0.0151    0.0139 C   0  0  0  0  0  0  0  0  0  0  0  0
   34.9025    0.9416    0.8426 C   0  0  0  0  0  0  0  0  0  0  0  0
   34.2420    1.8902    1.6919 C   0  0  0  0  0  0  0  0  0  0  0  0
   35.2124    2.5982    2.3245 C   0  0  0  0  0  0  0  0  0  0  0  0
   36.4706    2.0852    1.8641 C   0  0  0  0  0  0  0  0  0  0  0  0
   36.2492    1.0783    0.9636 N   0  0  0  0  0  0  0  0  0  0  0  0
   37.7134    2.5451    2.2730 C   0  0  0  0  0  0  0  0  0  0  0  0
   38.9500    2.0780    1.8529 C   0  0  0  0  0  0  0  0  0  0  0  0
   40.2154    2.5838    2.3009 C   0  0  0  0  0  0  0  0  0  0  0  0
   41.1755    1.8684    1.6609 C   0  0  0  0  0  0  0  0  0  0  0  0
   39.1568    1.0684    0.9521 N   0  0  0  0  0  0  0  0  0  0  0  0
   40.5014    0.9226    0.8194 C   0  0  0  0  0  0  0  0  0  0  0  0
   41.1469   -0.0107   -0.0125 C   0  0  0  0  0  0  0  0  0  0  0  0
   40.4878   -0.9397   -0.8386 C   0  0  0  0  0  0  0  0  0  0  0  0
   41.1484   -1.8903   -1.6855 C   0  0  0  0  0  0  0  0  0  0  0  0
   40.1780   -2.5999   -2.3164 C   0  0  0  0  0  0  0  0  0  0  0  0
   38.9199   -2.0855   -1.8578 C   0  0  0  0  0  0  0  0  0  0  0  0
   39.1411   -1.0766   -0.9595 N   0  0  0  0  0  0  0  0  0  0  0  0
   37.6770   -2.5451   -2.2672 C   0  0  0  0  0  0  0  0  0  0  0  0
   36.4408   -2.0750   -1.8501 C   0  0  0  0  0  0  0  0  0  0  0  0
   35.1753   -2.5789   -2.3003 C   0  0  0  0  0  0  0  0  0  0  0  0
   34.2152   -1.8616   -1.6624 C   0  0  0  0  0  0  0  0  0  0  0  0
   34.8894   -0.9168   -0.8197 C   0  0  0  0  0  0  0  0  0  0  0  0
   36.2340   -1.0644   -0.9504 N   0  0  0  0  0  0  0  0  0  0  0  0
   33.1721    1.9915    1.7833 H   0  0  0  0  0  0  0  0  0  0  0  0
   35.0999    3.3975    3.0400 H   0  0  0  0  0  0  0  0  0  0  0  0
   37.7191    3.3544    2.9963 H   0  0  0  0  0  0  0  0  0  0  0  0
   40.3398    3.3839    3.0136 H   0  0  0  0  0  0  0  0  0  0  0  0
   42.2467    1.9632    1.7428 H   0  0  0  0  0  0  0  0  0  0  0  0
   42.2181   -1.9922   -1.7770 H   0  0  0  0  0  0  0  0  0  0  0  0
   40.2910   -3.4010   -3.0299 H   0  0  0  0  0  0  0  0  0  0  0  0
   37.6714   -3.3560   -2.9886 H   0  0  0  0  0  0  0  0  0  0  0  0
   35.0511   -3.3791   -3.0128 H   0  0  0  0  0  0  0  0  0  0  0  0
   33.1440   -1.9545   -1.7465 H   0  0  0  0  0  0  0  0  0  0  0  0
   51.2020   -0.0497   -0.0317 Cu  0  0  0  0  0  0  0  0  0  0  0  0
   47.7506   -0.0374   -0.0337 C   0  0  0  0  0  0  0  0  0  0  0  0
   48.4060    0.8943    0.7923 C   0  0  0  0  0  0  0  0  0  0  0  0
   47.7417    1.8483    1.6325 C   0  0  0  0  0  0  0  0  0  0  0  0
   48.7093    2.5655    2.2591 C   0  0  0  0  0  0  0  0  0  0  0  0
   49.9695    2.0522    1.8045 C   0  0  0  0  0  0  0  0  0  0  0  0
   49.7521    1.0354    0.9143 N   0  0  0  0  0  0  0  0  0  0  0  0
   51.2106    2.5221    2.2072 C   0  0  0  0  0  0  0  0  0  0  0  0
   52.4488    2.0537    1.7931 C   0  0  0  0  0  0  0  0  0  0  0  0
   53.7123    2.5690    2.2363 C   0  0  0  0  0  0  0  0  0  0  0  0
   54.6754    1.8459    1.6098 C   0  0  0  0  0  0  0  0  0  0  0  0
   52.6596    1.0319    0.9075 N   0  0  0  0  0  0  0  0  0  0  0  0
   54.0053    0.8855    0.7812 C   0  0  0  0  0  0  0  0  0  0  0  0
   54.6538   -0.0672   -0.0245 C   0  0  0  0  0  0  0  0  0  0  0  0
   53.9988   -1.0125   -0.8338 C   0  0  0  0  0  0  0  0  0  0  0  0
   54.6627   -1.9792   -1.6600 C   0  0  0  0  0  0  0  0  0  0  0  0
   53.6951   -2.6903   -2.2932 C   0  0  0  0  0  0  0  0  0  0  0  0
   52.4350   -2.1618   -1.8558 C   0  0  0  0  0  0  0  0  0  0  0  0
   52.6523   -1.1441   -0.9672 N   0  0  0  0  0  0  0  0  0  0  0  0
   51.1941   -2.6161   -2.2776 C   0  0  0  0  0  0  0  0  0  0  0  0
   49.9559   -2.1366   -1.8772 C   0  0  0  0  0  0  0  0  0  0  0  0
   48.6925   -2.6376   -2.3363 C   0  0  0  0  0  0  0  0  0  0  0  0
   47.7295   -1.9169   -1.7067 C   0  0  0  0  0  0  0  0  0  0  0  0
   48.3999   -0.9719   -0.8612 C   0  0  0  0  0  0  0  0  0  0  0  0
   49.7450   -1.1223   -0.9826 N   0  0  0  0  0  0  0  0  0  0  0  0
   46.6715    1.9472    1.7224 H   0  0  0  0  0  0  0  0  0  0  0  0
   48.5934    3.3715    2.9665 H   0  0  0  0  0  0  0  0  0  0  0  0
   51.2133    3.3404    2.9203 H   0  0  0  0  0  0  0  0  0  0  0  0
   53.8331    3.3794    2.9379 H   0  0  0  0  0  0  0  0  0  0  0  0
   55.7461    1.9435    1.6937 H   0  0  0  0  0  0  0  0  0  0  0  0
   55.7328   -2.0885   -1.7380 H   0  0  0  0  0  0  0  0  0  0  0  0
   53.8107   -3.5011   -2.9951 H   0  0  0  0  0  0  0  0  0  0  0  0
   51.1921   -3.4315   -2.9940 H   0  0  0  0  0  0  0  0  0  0  0  0
   48.5712   -3.4385   -3.0486 H   0  0  0  0  0  0  0  0  0  0  0  0
   46.6587   -2.0074   -1.7982 H   0  0  0  0  0  0  0  0  0  0  0  0
  2  3  4  0  0  0  0
  3  4  1  0  0  0  0
  4  5  2  0  0  0  0
  5  6  1  0  0  0  0
  1  7  1  0  0  0  0
  3  7  4  0  0  0  0
  6  7  4  0  0  0  0
  6  8  4  0  0  0  0
  8  9  4  0  0  0  0
  9 10  4  0  0  0  0
 10 11  2  0  0  0  0
  1 12  1  0  0  0  0
  9 12  4  0  0  0  0
 11 13  4  0  0  0  0
 12 13  4  0  0  0  0
 13 14  4  0  0  0  0
 14 15  4  0  0  0  0
 15 16  4  0  0  0  0
 16 17  2  0  0  0  0
 17 18  4  0  0  0  0
  1 19  1  0  0  0  0
 15 19  4  0  0  0  0
 18 19  4  0  0  0  0
 18 20  4  0  0  0  0
 20 21  4  0  0  0  0
 21 22  1  0  0  0  0
 22 23  2  0  0  0  0
  2 24  4  0  0  0  0
 23 24  1  0  0  0  0
  1 25  1  0  0  0  0
 21 25  4  0  0  0  0
 24 25  4  0  0  0  0
  2 26  1  0  0  0  0
  4 27  1  0  0  0  0
  5 28  1  0  0  0  0
  8 29  1  0  0  0  0
 10 30  1  0  0  0  0
 11 31  1  0  0  0  0
 16 32  1  0  0  0  0
 17 33  1  0  0  0  0
 20 34  1  0  0  0  0
 22 35  1  0  0  0  0
 23 36  1  0  0  0  0
 38 39  4  0  0  0  0
 39 40  1  0  0  0  0
 40 41  2  0  0  0  0
 41 42  1  0  0  0  0
 37 43  1  0  0  0  0
 39 43  4  0  0  0  0
 42 43  4  0  0  0  0
 42 44  4  0  0  0  0
 44 45  4  0  0  0  0
 45 46  4  0  0  0  0
 46 47  2  0  0  0  0
 37 48  1  0  0  0  0
 45 48  4  0  0  0  0
 47 49  4  0  0  0  0
 48 49  4  0  0  0  0
 49 50  4  0  0  0  0
 50 51  4  0  0  0  0
 51 52  4  0  0  0  0
 52 53  2  0  0  0  0
 53 54  4  0  0  0  0
 37 55  1  0  0  0  0
 51 55  4  0  0  0  0
 54 55  4  0  0  0  0
 54 56  4  0  0  0  0
 56 57  4  0  0  0  0
 57 58  1  0  0  0  0
 58 59  2  0  0  0  0
 38 60  4  0  0  0  0
 59 60  1  0  0  0  0
 37 61  1  0  0  0  0
 57 61  4  0  0  0  0
 60 61  4  0  0  0  0
 38 62  1  0  0  0  0
 40 63  1  0  0  0  0
 41 64  1  0  0  0  0
 44 65  1  0  0  0  0
 46 66  1  0  0  0  0
 47 67  1  0  0  0  0
 52 68  1  0  0  0  0
 53 69  1  0  0  0  0
 56 70  1  0  0  0  0
 58 71  1  0  0  0  0
 59 72  1  0  0  0  0
 14 74  4  0  0  0  0
 73 74  3  0  0  0  0
 73 75  4  0  0  0  0
 75 76  3  0  0  0  0
 77 78  3  0  0  0  0
 77 79  4  0  0  0  0
 79 80  3  0  0  0  0
 81 82  3  0  0  0  0
 81 83  4  0  0  0  0
 50 84  4  0  0  0  0
 83 84  3  0  0  0  0
 76 86  4  0  0  0  0
 86 87  4  0  0  0  0
 87 88  4  0  0  0  0
 88 89  2  0  0  0  0
 89 90  4  0  0  0  0
 85 91  1  0  0  0  0
 87 91  4  0  0  0  0
 90 91  4  0  0  0  0
 90 92  4  0  0  0  0
 92 93  4  0  0  0  0
 93 94  4  0  0  0  0
 94 95  2  0  0  0  0
 85 96  1  0  0  0  0
 93 96  4  0  0  0  0
 95 97  4  0  0  0  0
 96 97  4  0  0  0  0
 78 98  4  0  0  0  0
 97 98  4  0  0  0  0
 98 99  4  0  0  0  0
 99100  4  0  0  0  0
100101  2  0  0  0  0
101102  4  0  0  0  0
 85103  1  0  0  0  0
 99103  4  0  0  0  0
102103  4  0  0  0  0
102104  4  0  0  0  0
104105  4  0  0  0  0
105106  4  0  0  0  0
106107  2  0  0  0  0
 86108  4  0  0  0  0
107108  4  0  0  0  0
 85109  1  0  0  0  0
105109  4  0  0  0  0
108109  4  0  0  0  0
 88110  1  0  0  0  0
 89111  1  0  0  0  0
 92112  1  0  0  0  0
 94113  1  0  0  0  0
 95114  1  0  0  0  0
100115  1  0  0  0  0
101116  1  0  0  0  0
104117  1  0  0  0  0
106118  1  0  0  0  0
107119  1  0  0  0  0
 80121  4  0  0  0  0
121122  4  0  0  0  0
122123  4  0  0  0  0
123124  2  0  0  0  0
124125  4  0  0  0  0
120126  1  0  0  0  0
122126  4  0  0  0  0
125126  4  0  0  0  0
125127  4  0  0  0  0
127128  4  0  0  0  0
128129  4  0  0  0  0
129130  2  0  0  0  0
120131  1  0  0  0  0
128131  4  0  0  0  0
130132  4  0  0  0  0
131132  4  0  0  0  0
 82133  4  0  0  0  0
132133  4  0  0  0  0
133134  4  0  0  0  0
134135  4  0  0  0  0
135136  2  0  0  0  0
136137  4  0  0  0  0
120138  1  0  0  0  0
134138  4  0  0  0  0
137138  4  0  0  0  0
137139  4  0  0  0  0
139140  4  0  0  0  0
140141  4  0  0  0  0
141142  2  0  0  0  0
121143  4  0  0  0  0
142143  4  0  0  0  0
120144  1  0  0  0  0
140144  4  0  0  0  0
143144  4  0  0  0  0
123145  1  0  0  0  0
124146  1  0  0  0  0
127147  1  0  0  0  0
129148  1  0  0  0  0
130149  1  0  0  0  0
135150  1  0  0  0  0
136151  1  0  0  0  0
139152  1  0  0  0  0
141153  1  0  0  0  0
142154  1  0  0  0  0
M  END
