576

C 129.739126 -0.605946 0.576493
C 130.429671 -1.245821 -0.667830
C 129.780577 -1.774128 -1.757718
C 130.777195 -2.249256 -2.647297
C 132.002362 -2.006445 -2.066967
N 131.779665 -1.356184 -0.877246
C 133.425608 -2.419126 -2.636557
C 133.480566 -3.299186 -3.836398
C 134.047090 -2.788347 -5.020708
C 134.108066 -3.576468 -6.161997
O 134.663451 -3.119417 -7.323682
C 133.587435 -4.861526 -6.144595
O 133.634678 -5.634597 -7.275387
C 133.000626 -5.368471 -4.987342
O 132.464287 -6.625662 -5.002763
C 132.947505 -4.599801 -3.828308
C 134.555676 -1.926907 -2.052493
C 135.876168 -2.385254 -2.432692
C 136.774329 -1.734836 -1.703284
N 134.738447 -1.000080 -1.060061
C 136.075907 -0.816113 -0.827813
C 136.738604 0.020966 0.014766
C 135.945883 1.065482 0.908114
C 136.436623 2.261385 1.394824
C 135.420313 2.857808 2.183391
C 134.328565 2.017447 2.141275
N 134.642565 0.952144 1.328185
C 132.943420 2.228416 2.879074
C 132.865911 3.258992 3.938536
C 133.339310 3.006423 5.236627
C 133.251881 4.003475 6.195904
O 133.702138 3.778324 7.466222
C 132.707263 5.240616 5.872558
O 132.628299 6.211857 6.837179
C 132.250774 5.500194 4.584750
O 131.735664 6.741199 4.328665
C 132.325384 4.516523 3.611905
C 131.852086 1.520217 2.482268
C 130.565184 1.620694 3.149777
C 129.702649 0.828788 2.519973
C 130.400956 0.209399 1.419504
N 131.694354 0.627082 1.461220
H 128.688429 -0.814457 0.742819
H 128.710953 -1.811250 -1.899708
H 130.616106 -2.727977 -3.601662
H 132.505937 -0.986020 -0.272656
H 134.429016 -1.768220 -5.008715
H 134.977408 -2.222173 -7.131032
H 134.120569 -5.072455 -7.903140
H 132.705776 -6.960358 -5.883451
H 132.485502 -4.991375 -2.925457
H 136.104223 -3.150644 -3.151525
H 137.834226 -1.889723 -1.766980
H 137.421505 2.664851 1.207498
H 135.481996 3.793459 2.719407
H 133.984274 0.227502 1.046705
H 133.768741 2.037351 5.475172
H 133.532221 4.619169 7.930719
H 132.213161 6.965129 6.361113
H 131.502185 6.757314 3.381098
H 131.969934 4.680378 2.596487
H 130.340901 2.214666 4.017187
H 128.668322 0.681855 2.776303
C 229.684067 -0.679149 0.482095
C 228.993522 0.366697 1.411605
C 229.642615 1.290744 2.194612
C 228.645997 2.034029 2.876246
C 227.420831 1.532419 2.496604
N 227.643528 0.542043 1.570628
C 225.997584 1.981337 3.038094
C 225.942627 2.924304 4.189153
C 225.376103 4.198503 3.989239
C 225.315126 5.107650 5.036676
O 224.759742 6.346545 4.883224
C 225.835757 4.770874 6.276942
O 225.788515 5.673601 7.307189
C 226.422567 3.523850 6.479820
O 226.958906 3.225800 7.701267
C 226.475687 2.592673 5.446804
C 224.867517 1.538202 2.415966
C 223.547025 1.792323 2.954535
C 222.648864 1.247806 2.143005
N 224.684745 0.807756 1.271249
C 223.347285 0.628621 1.035255
C 222.684589 0.020966 0.014766
C 223.477309 -0.584217 -1.219267
C 222.986570 -0.757875 -2.498686
C 224.002879 -1.373131 -3.272649
C 225.094627 -1.541553 -2.448262
N 224.780627 -1.019277 -1.214077
C 226.479772 -2.203601 -2.836268
C 226.557282 -2.973137 -4.098155
C 226.083883 -4.293237 -4.176707
C 226.171312 -4.974088 -5.381183
O 225.721055 -6.260463 -5.479375
C 226.715930 -4.352929 -6.498874
O 226.794893 -5.045383 -7.679683
C 227.172419 -3.041045 -6.429672
O 227.687528 -2.484067 -7.567850
C 227.097809 -2.343721 -5.234777
C 227.571107 -1.995599 -2.051580
C 228.858008 -2.617076 -2.315073
C 229.720543 -2.204252 -1.391307
C 229.022237 -1.292632 -0.517451
N 227.728839 -1.229050 -0.932369
H 230.734764 -0.892147 0.642632
H 230.712240 1.419022 2.265915
H 228.807087 2.839165 3.577490
H 226.917255 0.048643 1.061603
H 224.994177 4.440854 2.998245
H 224.445785 6.383335 3.966269
H 225.302624 6.421538 6.919030
H 226.717417 3.995435 8.244678
H 226.937690 1.620764 5.601279
H 223.318970 2.297975 3.874784
H 221.588966 1.270936 2.308873
H 222.001688 -0.476001 -2.842813
H 223.941197 -1.659334 -4.312285
H 225.438919 -0.927064 -0.442174
H 225.654451 -4.765527 -3.297533
H 225.890972 -6.501002 -6.409385
H 227.210032 -4.396774 -8.290719
H 227.921008 -1.562322 -7.347555
H 227.453258 -1.319480 -5.140678
H 229.082292 -3.309303 -3.106291
H 230.754871 -2.489091 -1.312816
C 139.126087 0.020966 0.014766
C 140.348004 0.020966 0.014766
C 150.547387 0.020966 0.014766
C 151.769305 0.020966 0.014766
C 161.968687 0.020966 0.014766
C 163.190605 0.020966 0.014766
C 173.389987 0.020966 0.014766
C 174.611905 0.020966 0.014766
C 184.811288 0.020966 0.014766
C 186.033205 0.020966 0.014766
C 196.232588 0.020966 0.014766
C 197.454506 0.020966 0.014766
C 207.653888 0.020966 0.014766
C 208.875806 0.020966 0.014766
C 219.075188 0.020966 0.014766
C 220.297106 0.020966 0.014766
C 141.889217 -0.006860 -0.004831
C 142.673650 -1.353532 0.288654
C 142.139113 -2.522983 0.793239
C 143.176530 -3.488486 0.815831
C 144.316913 -2.876031 0.337248
N 144.017668 -1.558929 0.087221
C 145.718324 -3.568046 0.096907
C 145.725633 -5.031698 -0.130658
C 146.052300 -5.912801 0.917604
C 146.060546 -7.290691 0.692709
O 146.389792 -8.151906 1.708414
C 145.738814 -7.787801 -0.570731
O 145.739378 -9.134419 -0.825079
C 145.413337 -6.909369 -1.611325
O 145.111446 -7.445148 -2.842879
C 145.402595 -5.534243 -1.401840
C 146.854056 -2.825154 0.027603
C 148.145382 -3.420161 -0.250199
C 149.052323 -2.451829 -0.289951
N 147.061931 -1.479642 0.159101
C 148.388248 -1.190140 -0.027501
C 149.057598 -0.006860 -0.004831
C 148.274998 1.340236 0.286821
C 148.808724 2.504032 0.807911
C 147.773934 3.472738 0.824159
C 146.634726 2.866803 0.327983
N 146.935603 1.553902 0.059215
C 145.228385 3.556471 0.101078
C 145.186226 5.035920 0.046956
C 145.462667 5.728866 -1.143038
C 145.401199 7.116889 -1.149926
O 145.658965 7.806650 -2.303866
C 145.072952 7.813079 0.012115
O 145.009585 9.182590 -0.017936
C 144.807686 7.129778 1.194338
O 144.489206 7.860766 2.309654
C 144.862997 5.742949 1.221258
C 144.096133 2.808770 0.005858
C 142.798369 3.406946 -0.243482
C 141.891162 2.437897 -0.280686
C 142.561279 1.174031 -0.046682
N 143.893683 1.459659 0.102720
H 141.110809 -2.676306 1.087850
H 143.093746 -4.520654 1.127295
H 144.689028 -0.845262 -0.184290
H 146.301440 -5.490930 1.890657
H 146.645291 -7.611813 2.479355
H 145.494022 -9.186943 -1.771433
H 144.931531 -6.687820 -3.432979
H 145.156236 -4.830831 -2.195576
H 148.348024 -4.464139 -0.410866
H 150.098298 -2.600922 -0.487183
H 149.833620 2.651656 1.120260
H 147.858399 4.500378 1.146245
H 146.264261 0.843949 -0.224907
H 145.713206 5.176259 -2.046206
H 145.515226 8.740766 -2.053411
H 144.753170 9.409763 0.901252
H 144.343946 7.213203 3.024587
H 144.654822 5.174943 2.124900
H 142.594614 4.452770 -0.392457
H 140.840856 2.587596 -0.452657
C 153.310517 -0.006860 -0.004831
C 154.094950 -1.353532 0.288654
C 153.560413 -2.522983 0.793239
C 154.597830 -3.488486 0.815831
C 155.738214 -2.876031 0.337248
N 155.438968 -1.558929 0.087221
C 157.139624 -3.568046 0.096907
C 157.146933 -5.031698 -0.130658
C 157.473600 -5.912801 0.917604
C 157.481847 -7.290691 0.692709
O 157.811092 -8.151906 1.708414
C 157.160114 -7.787801 -0.570731
O 157.160678 -9.134419 -0.825079
C 156.834638 -6.909369 -1.611325
O 156.532746 -7.445148 -2.842879
C 156.823895 -5.534243 -1.401840
C 158.275356 -2.825154 0.027603
C 159.566682 -3.420161 -0.250199
C 160.473623 -2.451829 -0.289951
N 158.483231 -1.479642 0.159101
C 159.809548 -1.190140 -0.027501
C 160.478898 -0.006860 -0.004831
C 159.696298 1.340236 0.286821
C 160.230024 2.504032 0.807911
C 159.195234 3.472738 0.824159
C 158.056026 2.866803 0.327983
N 158.356903 1.553902 0.059215
C 156.649685 3.556471 0.101078
C 156.607526 5.035920 0.046956
C 156.883967 5.728866 -1.143038
C 156.822500 7.116889 -1.149926
O 157.080265 7.806650 -2.303866
C 156.494252 7.813079 0.012115
O 156.430885 9.182590 -0.017936
C 156.228986 7.129778 1.194338
O 155.910506 7.860766 2.309654
C 156.284297 5.742949 1.221258
C 155.517433 2.808770 0.005858
C 154.219669 3.406946 -0.243482
C 153.312463 2.437897 -0.280686
C 153.982579 1.174031 -0.046682
N 155.314983 1.459659 0.102720
H 152.532109 -2.676306 1.087850
H 154.515046 -4.520654 1.127295
H 156.110328 -0.845262 -0.184290
H 157.722741 -5.490930 1.890657
H 158.066591 -7.611813 2.479355
H 156.915322 -9.186943 -1.771433
H 156.352831 -6.687820 -3.432979
H 156.577536 -4.830831 -2.195576
H 159.769325 -4.464139 -0.410866
H 161.519598 -2.600922 -0.487183
H 161.254920 2.651656 1.120260
H 159.279699 4.500378 1.146245
H 157.685562 0.843949 -0.224907
H 157.134506 5.176259 -2.046206
H 156.936526 8.740766 -2.053411
H 156.174470 9.409763 0.901252
H 155.765247 7.213203 3.024587
H 156.076123 5.174943 2.124900
H 154.015914 4.452770 -0.392457
H 152.262156 2.587596 -0.452657
C 164.731818 -0.006860 -0.004831
C 165.516251 -1.353532 0.288654
C 164.981713 -2.522983 0.793239
C 166.019131 -3.488486 0.815831
C 167.159514 -2.876031 0.337248
N 166.860268 -1.558929 0.087221
C 168.560924 -3.568046 0.096907
C 168.568233 -5.031698 -0.130658
C 168.894901 -5.912801 0.917604
C 168.903147 -7.290691 0.692709
O 169.232392 -8.151906 1.708414
C 168.581414 -7.787801 -0.570731
O 168.581978 -9.134419 -0.825079
C 168.255938 -6.909369 -1.611325
O 167.954047 -7.445148 -2.842879
C 168.245195 -5.534243 -1.401840
C 169.696656 -2.825154 0.027603
C 170.987982 -3.420161 -0.250199
C 171.894924 -2.451829 -0.289951
N 169.904531 -1.479642 0.159101
C 171.230849 -1.190140 -0.027501
C 171.900198 -0.006860 -0.004831
C 171.117599 1.340236 0.286821
C 171.651325 2.504032 0.807911
C 170.616534 3.472738 0.824159
C 169.477326 2.866803 0.327983
N 169.778204 1.553902 0.059215
C 168.070985 3.556471 0.101078
C 168.028826 5.035920 0.046956
C 168.305267 5.728866 -1.143038
C 168.243800 7.116889 -1.149926
O 168.501565 7.806650 -2.303866
C 167.915553 7.813079 0.012115
O 167.852185 9.182590 -0.017936
C 167.650287 7.129778 1.194338
O 167.331807 7.860766 2.309654
C 167.705598 5.742949 1.221258
C 166.938734 2.808770 0.005858
C 165.640969 3.406946 -0.243482
C 164.733763 2.437897 -0.280686
C 165.403880 1.174031 -0.046682
N 166.736284 1.459659 0.102720
H 163.953409 -2.676306 1.087850
H 165.936346 -4.520654 1.127295
H 167.531628 -0.845262 -0.184290
H 169.144041 -5.490930 1.890657
H 169.487891 -7.611813 2.479355
H 168.336622 -9.186943 -1.771433
H 167.774131 -6.687820 -3.432979
H 167.998836 -4.830831 -2.195576
H 171.190625 -4.464139 -0.410866
H 172.940898 -2.600922 -0.487183
H 172.676220 2.651656 1.120260
H 170.701000 4.500378 1.146245
H 169.106862 0.843949 -0.224907
H 168.555806 5.176259 -2.046206
H 168.357826 8.740766 -2.053411
H 167.595770 9.409763 0.901252
H 167.186547 7.213203 3.024587
H 167.497423 5.174943 2.124900
H 165.437214 4.452770 -0.392457
H 163.683456 2.587596 -0.452657
C 176.153118 -0.006860 -0.004831
C 176.937551 -1.353532 0.288654
C 176.403014 -2.522983 0.793239
C 177.440431 -3.488486 0.815831
C 178.580814 -2.876031 0.337248
N 178.281568 -1.558929 0.087221
C 179.982225 -3.568046 0.096907
C 179.989533 -5.031698 -0.130658
C 180.316201 -5.912801 0.917604
C 180.324447 -7.290691 0.692709
O 180.653693 -8.151906 1.708414
C 180.002714 -7.787801 -0.570731
O 180.003279 -9.134419 -0.825079
C 179.677238 -6.909369 -1.611325
O 179.375347 -7.445148 -2.842879
C 179.666495 -5.534243 -1.401840
C 181.117956 -2.825154 0.027603
C 182.409282 -3.420161 -0.250199
C 183.316224 -2.451829 -0.289951
N 181.325831 -1.479642 0.159101
C 182.652149 -1.190140 -0.027501
C 183.321499 -0.006860 -0.004831
C 182.538899 1.340236 0.286821
C 183.072625 2.504032 0.807911
C 182.037834 3.472738 0.824159
C 180.898626 2.866803 0.327983
N 181.199504 1.553902 0.059215
C 179.492286 3.556471 0.101078
C 179.450127 5.035920 0.046956
C 179.726568 5.728866 -1.143038
C 179.665100 7.116889 -1.149926
O 179.922866 7.806650 -2.303866
C 179.336853 7.813079 0.012115
O 179.273485 9.182590 -0.017936
C 179.071587 7.129778 1.194338
O 178.753107 7.860766 2.309654
C 179.126898 5.742949 1.221258
C 178.360034 2.808770 0.005858
C 177.062269 3.406946 -0.243482
C 176.155063 2.437897 -0.280686
C 176.825180 1.174031 -0.046682
N 178.157584 1.459659 0.102720
H 175.374709 -2.676306 1.087850
H 177.357646 -4.520654 1.127295
H 178.952929 -0.845262 -0.184290
H 180.565341 -5.490930 1.890657
H 180.909191 -7.611813 2.479355
H 179.757923 -9.186943 -1.771433
H 179.195432 -6.687820 -3.432979
H 179.420137 -4.830831 -2.195576
H 182.611925 -4.464139 -0.410866
H 184.362198 -2.600922 -0.487183
H 184.097520 2.651656 1.120260
H 182.122300 4.500378 1.146245
H 180.528162 0.843949 -0.224907
H 179.977106 5.176259 -2.046206
H 179.779126 8.740766 -2.053411
H 179.017071 9.409763 0.901252
H 178.607847 7.213203 3.024587
H 178.918723 5.174943 2.124900
H 176.858514 4.452770 -0.392457
H 175.104756 2.587596 -0.452657
C 187.574418 -0.006860 -0.004831
C 188.358851 -1.353532 0.288654
C 187.824314 -2.522983 0.793239
C 188.861731 -3.488486 0.815831
C 190.002114 -2.876031 0.337248
N 189.702869 -1.558929 0.087221
C 191.403525 -3.568046 0.096907
C 191.410834 -5.031698 -0.130658
C 191.737501 -5.912801 0.917604
C 191.745747 -7.290691 0.692709
O 192.074993 -8.151906 1.708414
C 191.424015 -7.787801 -0.570731
O 191.424579 -9.134419 -0.825079
C 191.098538 -6.909369 -1.611325
O 190.796647 -7.445148 -2.842879
C 191.087796 -5.534243 -1.401840
C 192.539257 -2.825154 0.027603
C 193.830583 -3.420161 -0.250199
C 194.737524 -2.451829 -0.289951
N 192.747132 -1.479642 0.159101
C 194.073449 -1.190140 -0.027501
C 194.742799 -0.006860 -0.004831
C 193.960199 1.340236 0.286821
C 194.493925 2.504032 0.807911
C 193.459135 3.472738 0.824159
C 192.319927 2.866803 0.327983
N 192.620804 1.553902 0.059215
C 190.913586 3.556471 0.101078
C 190.871427 5.035920 0.046956
C 191.147868 5.728866 -1.143038
C 191.086400 7.116889 -1.149926
O 191.344166 7.806650 -2.303866
C 190.758153 7.813079 0.012115
O 190.694786 9.182590 -0.017936
C 190.492887 7.129778 1.194338
O 190.174407 7.860766 2.309654
C 190.548198 5.742949 1.221258
C 189.781334 2.808770 0.005858
C 188.483570 3.406946 -0.243482
C 187.576363 2.437897 -0.280686
C 188.246480 1.174031 -0.046682
N 189.578884 1.459659 0.102720
H 186.796010 -2.676306 1.087850
H 188.778947 -4.520654 1.127295
H 190.374229 -0.845262 -0.184290
H 191.986641 -5.490930 1.890657
H 192.330492 -7.611813 2.479355
H 191.179223 -9.186943 -1.771433
H 190.616732 -6.687820 -3.432979
H 190.841437 -4.830831 -2.195576
H 194.033225 -4.464139 -0.410866
H 195.783499 -2.600922 -0.487183
H 195.518821 2.651656 1.120260
H 193.543600 4.500378 1.146245
H 191.949462 0.843949 -0.224907
H 191.398407 5.176259 -2.046206
H 191.200427 8.740766 -2.053411
H 190.438371 9.409763 0.901252
H 190.029147 7.213203 3.024587
H 190.340023 5.174943 2.124900
H 188.279815 4.452770 -0.392457
H 186.526057 2.587596 -0.452657
C 198.995718 -0.006860 -0.004831
C 199.780151 -1.353532 0.288654
C 199.245614 -2.522983 0.793239
C 200.283031 -3.488486 0.815831
C 201.423415 -2.876031 0.337248
N 201.124169 -1.558929 0.087221
C 202.824825 -3.568046 0.096907
C 202.832134 -5.031698 -0.130658
C 203.158801 -5.912801 0.917604
C 203.167048 -7.290691 0.692709
O 203.496293 -8.151906 1.708414
C 202.845315 -7.787801 -0.570731
O 202.845879 -9.134419 -0.825079
C 202.519839 -6.909369 -1.611325
O 202.217947 -7.445148 -2.842879
C 202.509096 -5.534243 -1.401840
C 203.960557 -2.825154 0.027603
C 205.251883 -3.420161 -0.250199
C 206.158824 -2.451829 -0.289951
N 204.168432 -1.479642 0.159101
C 205.494749 -1.190140 -0.027501
C 206.164099 -0.006860 -0.004831
C 205.381499 1.340236 0.286821
C 205.915225 2.504032 0.807911
C 204.880435 3.472738 0.824159
C 203.741227 2.866803 0.327983
N 204.042104 1.553902 0.059215
C 202.334886 3.556471 0.101078
C 202.292727 5.035920 0.046956
C 202.569168 5.728866 -1.143038
C 202.507701 7.116889 -1.149926
O 202.765466 7.806650 -2.303866
C 202.179453 7.813079 0.012115
O 202.116086 9.182590 -0.017936
C 201.914187 7.129778 1.194338
O 201.595707 7.860766 2.309654
C 201.969498 5.742949 1.221258
C 201.202634 2.808770 0.005858
C 199.904870 3.406946 -0.243482
C 198.997664 2.437897 -0.280686
C 199.667780 1.174031 -0.046682
N 201.000184 1.459659 0.102720
H 198.217310 -2.676306 1.087850
H 200.200247 -4.520654 1.127295
H 201.795529 -0.845262 -0.184290
H 203.407942 -5.490930 1.890657
H 203.751792 -7.611813 2.479355
H 202.600523 -9.186943 -1.771433
H 202.038032 -6.687820 -3.432979
H 202.262737 -4.830831 -2.195576
H 205.454526 -4.464139 -0.410866
H 207.204799 -2.600922 -0.487183
H 206.940121 2.651656 1.120260
H 204.964900 4.500378 1.146245
H 203.370763 0.843949 -0.224907
H 202.819707 5.176259 -2.046206
H 202.621727 8.740766 -2.053411
H 201.859671 9.409763 0.901252
H 201.450448 7.213203 3.024587
H 201.761324 5.174943 2.124900
H 199.701115 4.452770 -0.392457
H 197.947357 2.587596 -0.452657
C 210.417019 -0.006860 -0.004831
C 211.201452 -1.353532 0.288654
C 210.666914 -2.522983 0.793239
C 211.704332 -3.488486 0.815831
C 212.844715 -2.876031 0.337248
N 212.545469 -1.558929 0.087221
C 214.246125 -3.568046 0.096907
C 214.253434 -5.031698 -0.130658
C 214.580102 -5.912801 0.917604
C 214.588348 -7.290691 0.692709
O 214.917593 -8.151906 1.708414
C 214.266615 -7.787801 -0.570731
O 214.267179 -9.134419 -0.825079
C 213.941139 -6.909369 -1.611325
O 213.639248 -7.445148 -2.842879
C 213.930396 -5.534243 -1.401840
C 215.381857 -2.825154 0.027603
C 216.673183 -3.420161 -0.250199
C 217.580125 -2.451829 -0.289951
N 215.589732 -1.479642 0.159101
C 216.916049 -1.190140 -0.027501
C 217.585399 -0.006860 -0.004831
C 216.802800 1.340236 0.286821
C 217.336526 2.504032 0.807911
C 216.301735 3.472738 0.824159
C 215.162527 2.866803 0.327983
N 215.463404 1.553902 0.059215
C 213.756186 3.556471 0.101078
C 213.714027 5.035920 0.046956
C 213.990468 5.728866 -1.143038
C 213.929001 7.116889 -1.149926
O 214.186766 7.806650 -2.303866
C 213.600754 7.813079 0.012115
O 213.537386 9.182590 -0.017936
C 213.335488 7.129778 1.194338
O 213.017008 7.860766 2.309654
C 213.390798 5.742949 1.221258
C 212.623935 2.808770 0.005858
C 211.326170 3.406946 -0.243482
C 210.418964 2.437897 -0.280686
C 211.089081 1.174031 -0.046682
N 212.421485 1.459659 0.102720
H 209.638610 -2.676306 1.087850
H 211.621547 -4.520654 1.127295
H 213.216829 -0.845262 -0.184290
H 214.829242 -5.490930 1.890657
H 215.173092 -7.611813 2.479355
H 214.021823 -9.186943 -1.771433
H 213.459332 -6.687820 -3.432979
H 213.684037 -4.830831 -2.195576
H 216.875826 -4.464139 -0.410866
H 218.626099 -2.600922 -0.487183
H 218.361421 2.651656 1.120260
H 216.386201 4.500378 1.146245
H 214.792063 0.843949 -0.224907
H 214.241007 5.176259 -2.046206
H 214.043027 8.740766 -2.053411
H 213.280971 9.409763 0.901252
H 212.871748 7.213203 3.024587
H 213.182624 5.174943 2.124900
H 211.122415 4.452770 -0.392457
H 209.368657 2.587596 -0.452657
