 xtb: 6.5.1 (b24c23e)
          07302206293D

274313  0     0  0            999 V2000
   54.0425    0.0351   -0.0392 Cu  0  0  0  0  0  0  0  0  0  0  0  0
   50.6367    0.0656   -0.0557 C   0  0  0  0  0  0  0  0  0  0  0  0
   51.2652    0.9770    0.7798 C   0  0  0  0  0  0  0  0  0  0  0  0
   50.5844    1.8727    1.6694 C   0  0  0  0  0  0  0  0  0  0  0  0
   51.5384    2.5935    2.3101 C   0  0  0  0  0  0  0  0  0  0  0  0
   52.8109    2.1546    1.8058 C   0  0  0  0  0  0  0  0  0  0  0  0
   52.6141    1.1667    0.8843 N   0  0  0  0  0  0  0  0  0  0  0  0
   54.0516    2.6553    2.2113 C   0  0  0  0  0  0  0  0  0  0  0  0
   54.0557    3.7758    3.1810 C   0  0  0  0  0  0  0  0  0  0  0  0
   53.4296    4.9879    2.8766 C   0  0  0  0  0  0  0  0  0  0  0  0
   53.4384    6.0346    3.7790 C   0  0  0  0  0  0  0  0  0  0  0  0
   54.0695    5.8976    5.0216 C   0  0  0  0  0  0  0  0  0  0  0  0
   54.0019    6.9547    5.9175 N   0  0  0  0  0  0  0  0  0  0  0  0
   55.0057    7.0736    6.9666 C   0  0  0  0  0  0  0  0  0  0  0  0
   54.6835    4.6823    5.3375 C   0  0  0  0  0  0  0  0  0  0  0  0
   54.6808    3.6435    4.4222 C   0  0  0  0  0  0  0  0  0  0  0  0
   55.2875    2.1754    1.7703 C   0  0  0  0  0  0  0  0  0  0  0  0
   56.5591    2.7401    2.1215 C   0  0  0  0  0  0  0  0  0  0  0  0
   57.5108    2.0012    1.4957 C   0  0  0  0  0  0  0  0  0  0  0  0
   55.4842    1.1132    0.9273 N   0  0  0  0  0  0  0  0  0  0  0  0
   56.8280    0.9867    0.7518 C   0  0  0  0  0  0  0  0  0  0  0  0
   57.4713    0.0085   -0.0276 C   0  0  0  0  0  0  0  0  0  0  0  0
   56.8184   -0.9611   -0.8096 C   0  0  0  0  0  0  0  0  0  0  0  0
   57.4906   -1.9885   -1.5453 C   0  0  0  0  0  0  0  0  0  0  0  0
   56.5319   -2.7164   -2.1733 C   0  0  0  0  0  0  0  0  0  0  0  0
   55.2667   -2.1309   -1.8331 C   0  0  0  0  0  0  0  0  0  0  0  0
   55.4741   -1.0680   -0.9935 N   0  0  0  0  0  0  0  0  0  0  0  0
   54.0264   -2.5930   -2.2804 C   0  0  0  0  0  0  0  0  0  0  0  0
   54.0182   -3.7226   -3.2396 C   0  0  0  0  0  0  0  0  0  0  0  0
   54.6550   -3.6154   -4.4772 C   0  0  0  0  0  0  0  0  0  0  0  0
   54.6469   -4.6649   -5.3803 C   0  0  0  0  0  0  0  0  0  0  0  0
   54.0095   -5.8656   -5.0553 C   0  0  0  0  0  0  0  0  0  0  0  0
   53.9312   -6.9324   -5.9393 N   0  0  0  0  0  0  0  0  0  0  0  0
   54.9454   -7.0840   -6.9741 C   0  0  0  0  0  0  0  0  0  0  0  0
   53.3658   -5.9770   -3.8168 C   0  0  0  0  0  0  0  0  0  0  0  0
   53.3682   -4.9199   -2.9266 C   0  0  0  0  0  0  0  0  0  0  0  0
   52.7911   -2.0680   -1.8891 C   0  0  0  0  0  0  0  0  0  0  0  0
   51.5160   -2.4857   -2.4045 C   0  0  0  0  0  0  0  0  0  0  0  0
   50.5690   -1.7445   -1.7769 C   0  0  0  0  0  0  0  0  0  0  0  0
   51.2570   -0.8580   -0.8836 C   0  0  0  0  0  0  0  0  0  0  0  0
   52.6032   -1.0726   -0.9738 N   0  0  0  0  0  0  0  0  0  0  0  0
   49.5515    0.0755   -0.0612 H   0  0  0  0  0  0  0  0  0  0  0  0
   49.5135    1.9233    1.7896 H   0  0  0  0  0  0  0  0  0  0  0  0
   51.3992    3.3464    3.0692 H   0  0  0  0  0  0  0  0  0  0  0  0
   52.9521    5.1149    1.9111 H   0  0  0  0  0  0  0  0  0  0  0  0
   52.9557    6.9729    3.5266 H   0  0  0  0  0  0  0  0  0  0  0  0
   53.8138    7.8402    5.4629 H   0  0  0  0  0  0  0  0  0  0  0  0
   56.0222    7.0317    6.5587 H   0  0  0  0  0  0  0  0  0  0  0  0
   54.8791    6.2740    7.6975 H   0  0  0  0  0  0  0  0  0  0  0  0
   54.8575    8.0303    7.4677 H   0  0  0  0  0  0  0  0  0  0  0  0
   55.1624    4.5391    6.2983 H   0  0  0  0  0  0  0  0  0  0  0  0
   55.1527    2.7023    4.6831 H   0  0  0  0  0  0  0  0  0  0  0  0
   56.7020    3.6035    2.7511 H   0  0  0  0  0  0  0  0  0  0  0  0
   58.5810    2.1303    1.5225 H   0  0  0  0  0  0  0  0  0  0  0  0
   58.5590   -2.1337   -1.5647 H   0  0  0  0  0  0  0  0  0  0  0  0
   56.6659   -3.5848   -2.7980 H   0  0  0  0  0  0  0  0  0  0  0  0
   55.1450   -2.6856   -4.7453 H   0  0  0  0  0  0  0  0  0  0  0  0
   55.1357   -4.5412   -6.3389 H   0  0  0  0  0  0  0  0  0  0  0  0
   53.7220   -7.8082   -5.4753 H   0  0  0  0  0  0  0  0  0  0  0  0
   54.8442   -6.2908   -7.7159 H   0  0  0  0  0  0  0  0  0  0  0  0
   54.7841   -8.0434   -7.4657 H   0  0  0  0  0  0  0  0  0  0  0  0
   55.9573   -7.0577   -6.5538 H   0  0  0  0  0  0  0  0  0  0  0  0
   52.8646   -6.9037   -3.5575 H   0  0  0  0  0  0  0  0  0  0  0  0
   52.8807   -5.0272   -1.9637 H   0  0  0  0  0  0  0  0  0  0  0  0
   51.3708   -3.2393   -3.1618 H   0  0  0  0  0  0  0  0  0  0  0  0
   49.4986   -1.7759   -1.9080 H   0  0  0  0  0  0  0  0  0  0  0  0
   94.4574    0.0287   -0.0134 Cu  0  0  0  0  0  0  0  0  0  0  0  0
   97.8630    0.0426   -0.0575 C   0  0  0  0  0  0  0  0  0  0  0  0
   97.2339   -0.9742   -0.7603 C   0  0  0  0  0  0  0  0  0  0  0  0
   97.9141   -2.0389   -1.4394 C   0  0  0  0  0  0  0  0  0  0  0  0
   96.9594   -2.8248   -1.9970 C   0  0  0  0  0  0  0  0  0  0  0  0
   95.6871   -2.2378   -1.6765 C   0  0  0  0  0  0  0  0  0  0  0  0
   95.8848   -1.1201   -0.9178 N   0  0  0  0  0  0  0  0  0  0  0  0
   94.4456   -2.7455   -2.0713 C   0  0  0  0  0  0  0  0  0  0  0  0
   94.4411   -3.9388   -2.9499 C   0  0  0  0  0  0  0  0  0  0  0  0
   95.0638   -3.9080   -4.2009 C   0  0  0  0  0  0  0  0  0  0  0  0
   95.0563   -5.0194   -5.0223 C   0  0  0  0  0  0  0  0  0  0  0  0
   94.4300   -6.2029   -4.6124 C   0  0  0  0  0  0  0  0  0  0  0  0
   94.4999   -7.3105   -5.4451 N   0  0  0  0  0  0  0  0  0  0  0  0
   93.4973   -8.3612   -5.3301 C   0  0  0  0  0  0  0  0  0  0  0  0
   93.8186   -6.2440   -3.3561 C   0  0  0  0  0  0  0  0  0  0  0  0
   93.8199   -5.1217   -2.5452 C   0  0  0  0  0  0  0  0  0  0  0  0
   93.2101   -2.2107   -1.6978 C   0  0  0  0  0  0  0  0  0  0  0  0
   91.9377   -2.6789   -2.1683 C   0  0  0  0  0  0  0  0  0  0  0  0
   90.9869   -1.9044   -1.5855 C   0  0  0  0  0  0  0  0  0  0  0  0
   93.0144   -1.1533   -0.8486 N   0  0  0  0  0  0  0  0  0  0  0  0
   91.6709   -0.9538   -0.7624 C   0  0  0  0  0  0  0  0  0  0  0  0
   91.0288    0.0240    0.0187 C   0  0  0  0  0  0  0  0  0  0  0  0
   91.6825    1.0005    0.7917 C   0  0  0  0  0  0  0  0  0  0  0  0
   91.0113    1.9448    1.6324 C   0  0  0  0  0  0  0  0  0  0  0  0
   91.9708    2.7173    2.2035 C   0  0  0  0  0  0  0  0  0  0  0  0
   93.2354    2.2557    1.7065 C   0  0  0  0  0  0  0  0  0  0  0  0
   93.0268    1.2027    0.8548 N   0  0  0  0  0  0  0  0  0  0  0  0
   94.4763    2.7936    2.0570 C   0  0  0  0  0  0  0  0  0  0  0  0
   94.4868    3.9785    2.9470 C   0  0  0  0  0  0  0  0  0  0  0  0
   93.8524    5.1631    2.5691 C   0  0  0  0  0  0  0  0  0  0  0  0
   93.8663    6.2770    3.3913 C   0  0  0  0  0  0  0  0  0  0  0  0
   94.5072    6.2254    4.6324 C   0  0  0  0  0  0  0  0  0  0  0  0
   94.5933    7.3248    5.4744 N   0  0  0  0  0  0  0  0  0  0  0  0
   93.5859    8.3739    5.3928 C   0  0  0  0  0  0  0  0  0  0  0  0
   95.1469    5.0401    5.0154 C   0  0  0  0  0  0  0  0  0  0  0  0
   95.1389    3.9372    4.1826 C   0  0  0  0  0  0  0  0  0  0  0  0
   95.7111    2.2971    1.6283 C   0  0  0  0  0  0  0  0  0  0  0  0
   96.9864    2.8934    1.9187 C   0  0  0  0  0  0  0  0  0  0  0  0
   97.9326    2.1197    1.3302 C   0  0  0  0  0  0  0  0  0  0  0  0
   97.2439    1.0525    0.6639 C   0  0  0  0  0  0  0  0  0  0  0  0
   95.8982    1.1856    0.8581 N   0  0  0  0  0  0  0  0  0  0  0  0
   98.9482    0.0476   -0.0722 H   0  0  0  0  0  0  0  0  0  0  0  0
   98.9851   -2.1656   -1.4658 H   0  0  0  0  0  0  0  0  0  0  0  0
   97.0981   -3.7315   -2.5636 H   0  0  0  0  0  0  0  0  0  0  0  0
   95.5377   -2.9930   -4.5394 H   0  0  0  0  0  0  0  0  0  0  0  0
   95.5366   -4.9792   -5.9944 H   0  0  0  0  0  0  0  0  0  0  0  0
   94.6879   -7.0625   -6.4091 H   0  0  0  0  0  0  0  0  0  0  0  0
   92.4804   -7.9555   -5.3812 H   0  0  0  0  0  0  0  0  0  0  0  0
   93.6232   -8.8965   -4.3881 H   0  0  0  0  0  0  0  0  0  0  0  0
   93.6477   -9.0617   -6.1516 H   0  0  0  0  0  0  0  0  0  0  0  0
   93.3431   -7.1508   -3.0030 H   0  0  0  0  0  0  0  0  0  0  0  0
   93.3504   -5.1696   -1.5686 H   0  0  0  0  0  0  0  0  0  0  0  0
   91.7938   -3.4845   -2.8700 H   0  0  0  0  0  0  0  0  0  0  0  0
   89.9165   -1.9592   -1.7040 H   0  0  0  0  0  0  0  0  0  0  0  0
   89.9430    1.9964    1.7703 H   0  0  0  0  0  0  0  0  0  0  0  0
   91.8377    3.5180    2.9130 H   0  0  0  0  0  0  0  0  0  0  0  0
   93.3601    5.2193    1.6042 H   0  0  0  0  0  0  0  0  0  0  0  0
   93.3798    7.1858    3.0588 H   0  0  0  0  0  0  0  0  0  0  0  0
   94.8042    7.0678    6.4313 H   0  0  0  0  0  0  0  0  0  0  0  0
   93.6896    8.9197    4.4542 H   0  0  0  0  0  0  0  0  0  0  0  0
   93.7526    9.0659    6.2184 H   0  0  0  0  0  0  0  0  0  0  0  0
   92.5713    7.9650    5.4620 H   0  0  0  0  0  0  0  0  0  0  0  0
   95.6501    4.9916    5.9755 H   0  0  0  0  0  0  0  0  0  0  0  0
   95.6242    3.0206    4.5001 H   0  0  0  0  0  0  0  0  0  0  0  0
   97.1322    3.7979    2.4871 H   0  0  0  0  0  0  0  0  0  0  0  0
   99.0028    2.2562    1.3283 H   0  0  0  0  0  0  0  0  0  0  0  0
   60.0995   -0.0089   -0.0198 C   0  0  0  0  0  0  0  0  0  0  0  0
   58.8773   -0.0014   -0.0234 C   0  0  0  0  0  0  0  0  0  0  0  0
   61.4493   -0.0144   -0.0155 C   0  0  0  0  0  0  0  0  0  0  0  0
   62.6716   -0.0154   -0.0112 C   0  0  0  0  0  0  0  0  0  0  0  0
   73.5761    0.0567   -0.0553 C   0  0  0  0  0  0  0  0  0  0  0  0
   72.3536    0.0513   -0.0542 C   0  0  0  0  0  0  0  0  0  0  0  0
   74.9254    0.0597   -0.0546 C   0  0  0  0  0  0  0  0  0  0  0  0
   76.1479    0.0625   -0.0524 C   0  0  0  0  0  0  0  0  0  0  0  0
   87.0510    0.0281    0.0281 C   0  0  0  0  0  0  0  0  0  0  0  0
   85.8286    0.0290    0.0245 C   0  0  0  0  0  0  0  0  0  0  0  0
   88.4006    0.0258    0.0288 C   0  0  0  0  0  0  0  0  0  0  0  0
   89.6229    0.0248    0.0271 C   0  0  0  0  0  0  0  0  0  0  0  0
   67.5127    0.0166   -0.0309 Cu  0  0  0  0  0  0  0  0  0  0  0  0
   64.0773   -0.0147   -0.0060 C   0  0  0  0  0  0  0  0  0  0  0  0
   64.7289   -1.0038   -0.7649 C   0  0  0  0  0  0  0  0  0  0  0  0
   64.0531   -1.9875   -1.5550 C   0  0  0  0  0  0  0  0  0  0  0  0
   65.0120   -2.7411   -2.1521 C   0  0  0  0  0  0  0  0  0  0  0  0
   66.2806   -2.2274   -1.7219 C   0  0  0  0  0  0  0  0  0  0  0  0
   66.0748   -1.1640   -0.8831 N   0  0  0  0  0  0  0  0  0  0  0  0
   67.5225   -2.7219   -2.1283 C   0  0  0  0  0  0  0  0  0  0  0  0
   67.5262   -3.8980   -3.0322 C   0  0  0  0  0  0  0  0  0  0  0  0
   66.9780   -5.1157   -2.6212 C   0  0  0  0  0  0  0  0  0  0  0  0
   66.9814   -6.2121   -3.4629 C   0  0  0  0  0  0  0  0  0  0  0  0
   67.5228   -6.1187   -4.7506 C   0  0  0  0  0  0  0  0  0  0  0  0
   67.5444   -7.2587   -5.5425 N   0  0  0  0  0  0  0  0  0  0  0  0
   67.6138   -7.1248   -6.9916 C   0  0  0  0  0  0  0  0  0  0  0  0
   68.0787   -4.9049   -5.1640 C   0  0  0  0  0  0  0  0  0  0  0  0
   68.0786   -3.8140   -4.3111 C   0  0  0  0  0  0  0  0  0  0  0  0
   68.7606   -2.1962   -1.7515 C   0  0  0  0  0  0  0  0  0  0  0  0
   70.0330   -2.7395   -2.1315 C   0  0  0  0  0  0  0  0  0  0  0  0
   70.9863   -1.9622   -1.5565 C   0  0  0  0  0  0  0  0  0  0  0  0
   68.9587   -1.1087   -0.9421 N   0  0  0  0  0  0  0  0  0  0  0  0
   70.3034   -0.9465   -0.8144 C   0  0  0  0  0  0  0  0  0  0  0  0
   70.9483    0.0480   -0.0565 C   0  0  0  0  0  0  0  0  0  0  0  0
   70.2964    1.0316    0.7095 C   0  0  0  0  0  0  0  0  0  0  0  0
   70.9722    2.0072    1.5094 C   0  0  0  0  0  0  0  0  0  0  0  0
   70.0134    2.7616    2.1057 C   0  0  0  0  0  0  0  0  0  0  0  0
   68.7449    2.2565    1.6649 C   0  0  0  0  0  0  0  0  0  0  0  0
   68.9507    1.1963    0.8222 N   0  0  0  0  0  0  0  0  0  0  0  0
   67.5030    2.7582    2.0627 C   0  0  0  0  0  0  0  0  0  0  0  0
   67.5007    3.9384    2.9607 C   0  0  0  0  0  0  0  0  0  0  0  0
   66.9312    3.8680    4.2329 C   0  0  0  0  0  0  0  0  0  0  0  0
   66.9342    4.9631    5.0805 C   0  0  0  0  0  0  0  0  0  0  0  0
   67.5106    6.1678    4.6684 C   0  0  0  0  0  0  0  0  0  0  0  0
   67.4934    7.3119    5.4538 N   0  0  0  0  0  0  0  0  0  0  0  0
   67.3920    7.1890    6.9019 C   0  0  0  0  0  0  0  0  0  0  0  0
   68.0699    6.2477    3.3873 C   0  0  0  0  0  0  0  0  0  0  0  0
   68.0698    5.1473    2.5511 C   0  0  0  0  0  0  0  0  0  0  0  0
   66.2647    2.2362    1.6807 C   0  0  0  0  0  0  0  0  0  0  0  0
   64.9924    2.7880    2.0485 C   0  0  0  0  0  0  0  0  0  0  0  0
   64.0392    2.0092    1.4752 C   0  0  0  0  0  0  0  0  0  0  0  0
   64.7221    0.9842    0.7460 C   0  0  0  0  0  0  0  0  0  0  0  0
   66.0667    1.1427    0.8793 N   0  0  0  0  0  0  0  0  0  0  0  0
   62.9821   -2.0779   -1.6427 H   0  0  0  0  0  0  0  0  0  0  0  0
   64.8745   -3.5632   -2.8358 H   0  0  0  0  0  0  0  0  0  0  0  0
   66.5621   -5.2049   -1.6235 H   0  0  0  0  0  0  0  0  0  0  0  0
   66.5625   -7.1551   -3.1274 H   0  0  0  0  0  0  0  0  0  0  0  0
   66.8569   -7.9445   -5.2538 H   0  0  0  0  0  0  0  0  0  0  0  0
   66.8360   -6.4527   -7.3722 H   0  0  0  0  0  0  0  0  0  0  0  0
   68.5926   -6.7439   -7.2857 H   0  0  0  0  0  0  0  0  0  0  0  0
   67.4798   -8.1147   -7.4279 H   0  0  0  0  0  0  0  0  0  0  0  0
   68.5138   -4.8044   -6.1508 H   0  0  0  0  0  0  0  0  0  0  0  0
   68.4977   -2.8725   -4.6496 H   0  0  0  0  0  0  0  0  0  0  0  0
   70.1765   -3.6130   -2.7467 H   0  0  0  0  0  0  0  0  0  0  0  0
   72.0580   -2.0653   -1.6175 H   0  0  0  0  0  0  0  0  0  0  0  0
   72.0430    2.0918    1.6044 H   0  0  0  0  0  0  0  0  0  0  0  0
   70.1510    3.5783    2.7958 H   0  0  0  0  0  0  0  0  0  0  0  0
   66.4969    2.9335    4.5713 H   0  0  0  0  0  0  0  0  0  0  0  0
   66.4860    4.8728    6.0624 H   0  0  0  0  0  0  0  0  0  0  0  0
   68.1950    7.9868    5.1740 H   0  0  0  0  0  0  0  0  0  0  0  0
   68.1511    6.5075    7.3031 H   0  0  0  0  0  0  0  0  0  0  0  0
   67.5325    8.1796    7.3344 H   0  0  0  0  0  0  0  0  0  0  0  0
   66.4014    6.8253    7.1779 H   0  0  0  0  0  0  0  0  0  0  0  0
   68.5055    7.1834    3.0528 H   0  0  0  0  0  0  0  0  0  0  0  0
   68.4993    5.2264    1.5584 H   0  0  0  0  0  0  0  0  0  0  0  0
   64.8488    3.6682    2.6541 H   0  0  0  0  0  0  0  0  0  0  0  0
   62.9676    2.1174    1.5290 H   0  0  0  0  0  0  0  0  0  0  0  0
   80.9880    0.0484   -0.0175 Cu  0  0  0  0  0  0  0  0  0  0  0  0
   77.5530    0.0611   -0.0461 C   0  0  0  0  0  0  0  0  0  0  0  0
   78.2043   -0.9547   -0.7696 C   0  0  0  0  0  0  0  0  0  0  0  0
   77.5298   -2.0141   -1.4559 C   0  0  0  0  0  0  0  0  0  0  0  0
   78.4882   -2.7817   -2.0359 C   0  0  0  0  0  0  0  0  0  0  0  0
   79.7544   -2.1891   -1.7139 C   0  0  0  0  0  0  0  0  0  0  0  0
   79.5488   -1.0806   -0.9357 N   0  0  0  0  0  0  0  0  0  0  0  0
   80.9955   -2.6853   -2.1210 C   0  0  0  0  0  0  0  0  0  0  0  0
   80.9984   -3.8584   -3.0271 C   0  0  0  0  0  0  0  0  0  0  0  0
   81.6139   -5.0541   -2.6466 C   0  0  0  0  0  0  0  0  0  0  0  0
   81.6140   -6.1487   -3.4904 C   0  0  0  0  0  0  0  0  0  0  0  0
   81.0094   -6.0753   -4.7513 C   0  0  0  0  0  0  0  0  0  0  0  0
   80.9944   -7.2137   -5.5441 N   0  0  0  0  0  0  0  0  0  0  0  0
   80.8396   -7.0845   -6.9868 C   0  0  0  0  0  0  0  0  0  0  0  0
   80.3883   -4.8833   -5.1349 C   0  0  0  0  0  0  0  0  0  0  0  0
   80.3842   -3.7950   -4.2791 C   0  0  0  0  0  0  0  0  0  0  0  0
   82.2340   -2.1617   -1.7408 C   0  0  0  0  0  0  0  0  0  0  0  0
   83.5032   -2.6222   -2.2255 C   0  0  0  0  0  0  0  0  0  0  0  0
   84.4576   -1.8632   -1.6277 C   0  0  0  0  0  0  0  0  0  0  0  0
   82.4338   -1.1250   -0.8679 N   0  0  0  0  0  0  0  0  0  0  0  0
   83.7776   -0.9294   -0.7829 C   0  0  0  0  0  0  0  0  0  0  0  0
   84.4233    0.0327    0.0150 C   0  0  0  0  0  0  0  0  0  0  0  0
   83.7711    0.9993    0.8022 C   0  0  0  0  0  0  0  0  0  0  0  0
   84.4434    1.9241    1.6628 C   0  0  0  0  0  0  0  0  0  0  0  0
   83.4850    2.6922    2.2423 C   0  0  0  0  0  0  0  0  0  0  0  0
   82.2212    2.2469    1.7297 C   0  0  0  0  0  0  0  0  0  0  0  0
   82.4280    1.2088    0.8603 N   0  0  0  0  0  0  0  0  0  0  0  0
   80.9808    2.7858    2.0819 C   0  0  0  0  0  0  0  0  0  0  0  0
   80.9779    3.9617    2.9838 C   0  0  0  0  0  0  0  0  0  0  0  0
   80.3253    3.9152    4.2170 C   0  0  0  0  0  0  0  0  0  0  0  0
   80.3234    5.0070    5.0684 C   0  0  0  0  0  0  0  0  0  0  0  0
   80.9784    6.1855    4.6997 C   0  0  0  0  0  0  0  0  0  0  0  0
   80.9607    7.3278    5.4868 N   0  0  0  0  0  0  0  0  0  0  0  0
   80.7522    7.2099    6.9236 C   0  0  0  0  0  0  0  0  0  0  0  0
   81.6227    6.2420    3.4576 C   0  0  0  0  0  0  0  0  0  0  0  0
   81.6271    5.1443    2.6181 C   0  0  0  0  0  0  0  0  0  0  0  0
   79.7431    2.3015    1.6499 C   0  0  0  0  0  0  0  0  0  0  0  0
   78.4764    2.9075    1.9438 C   0  0  0  0  0  0  0  0  0  0  0  0
   77.5222    2.1440    1.3517 C   0  0  0  0  0  0  0  0  0  0  0  0
   78.1999    1.0750    0.6840 C   0  0  0  0  0  0  0  0  0  0  0  0
   79.5423    1.1910    0.8733 N   0  0  0  0  0  0  0  0  0  0  0  0
   76.4605   -2.1519   -1.4772 H   0  0  0  0  0  0  0  0  0  0  0  0
   78.3528   -3.6805   -2.6153 H   0  0  0  0  0  0  0  0  0  0  0  0
   82.0788   -5.1284   -1.6695 H   0  0  0  0  0  0  0  0  0  0  0  0
   82.0845   -7.0749   -3.1775 H   0  0  0  0  0  0  0  0  0  0  0  0
   81.7197   -7.8744   -5.2923 H   0  0  0  0  0  0  0  0  0  0  0  0
   79.8289   -6.7515   -7.2263 H   0  0  0  0  0  0  0  0  0  0  0  0
   81.5620   -6.3760   -7.4081 H   0  0  0  0  0  0  0  0  0  0  0  0
   80.9974   -8.0671   -7.4317 H   0  0  0  0  0  0  0  0  0  0  0  0
   79.9053   -4.7985   -6.1006 H   0  0  0  0  0  0  0  0  0  0  0  0
   79.9136   -2.8702   -4.5950 H   0  0  0  0  0  0  0  0  0  0  0  0
   83.6434   -3.4128   -2.9449 H   0  0  0  0  0  0  0  0  0  0  0  0
   85.5276   -1.9174   -1.7505 H   0  0  0  0  0  0  0  0  0  0  0  0
   85.5111    1.9661    1.8084 H   0  0  0  0  0  0  0  0  0  0  0  0
   83.6189    3.4789    2.9672 H   0  0  0  0  0  0  0  0  0  0  0  0
   79.8287    3.0005    4.5226 H   0  0  0  0  0  0  0  0  0  0  0  0
   79.8098    4.9352    6.0193 H   0  0  0  0  0  0  0  0  0  0  0  0
   81.7082    7.9718    5.2575 H   0  0  0  0  0  0  0  0  0  0  0  0
   81.4464    6.4915    7.3745 H   0  0  0  0  0  0  0  0  0  0  0  0
   80.9111    8.1922    7.3685 H   0  0  0  0  0  0  0  0  0  0  0  0
   79.7279    6.8960    7.1282 H   0  0  0  0  0  0  0  0  0  0  0  0
   82.1203    7.1578    3.1562 H   0  0  0  0  0  0  0  0  0  0  0  0
   82.1221    5.2062    1.6551 H   0  0  0  0  0  0  0  0  0  0  0  0
   78.3379    3.8119    2.5138 H   0  0  0  0  0  0  0  0  0  0  0  0
   76.4539    2.2913    1.3522 H   0  0  0  0  0  0  0  0  0  0  0  0
  2  3  4  0  0  0  0
  3  4  1  0  0  0  0
  4  5  2  0  0  0  0
  5  6  4  0  0  0  0
  1  7  1  0  0  0  0
  3  7  4  0  0  0  0
  6  7  4  0  0  0  0
  6  8  4  0  0  0  0
  8  9  1  0  0  0  0
  9 10  4  0  0  0  0
 10 11  4  0  0  0  0
 11 12  4  0  0  0  0
 12 13  1  0  0  0  0
 13 14  1  0  0  0  0
 12 15  4  0  0  0  0
  9 16  4  0  0  0  0
 15 16  4  0  0  0  0
  8 17  4  0  0  0  0
 17 18  4  0  0  0  0
 18 19  2  0  0  0  0
  1 20  1  0  0  0  0
 17 20  4  0  0  0  0
 19 21  4  0  0  0  0
 20 21  4  0  0  0  0
 21 22  4  0  0  0  0
 22 23  4  0  0  0  0
 23 24  4  0  0  0  0
 24 25  2  0  0  0  0
 25 26  4  0  0  0  0
  1 27  1  0  0  0  0
 23 27  4  0  0  0  0
 26 27  4  0  0  0  0
 26 28  4  0  0  0  0
 28 29  1  0  0  0  0
 29 30  4  0  0  0  0
 30 31  4  0  0  0  0
 31 32  4  0  0  0  0
 32 33  1  0  0  0  0
 33 34  1  0  0  0  0
 32 35  4  0  0  0  0
 29 36  4  0  0  0  0
 35 36  4  0  0  0  0
 28 37  4  0  0  0  0
 37 38  4  0  0  0  0
 38 39  2  0  0  0  0
  2 40  4  0  0  0  0
 39 40  1  0  0  0  0
  1 41  1  0  0  0  0
 37 41  4  0  0  0  0
 40 41  4  0  0  0  0
  2 42  1  0  0  0  0
  4 43  1  0  0  0  0
  5 44  1  0  0  0  0
 10 45  1  0  0  0  0
 11 46  1  0  0  0  0
 13 47  1  0  0  0  0
 14 48  1  0  0  0  0
 14 49  1  0  0  0  0
 14 50  1  0  0  0  0
 15 51  1  0  0  0  0
 16 52  1  0  0  0  0
 18 53  1  0  0  0  0
 19 54  1  0  0  0  0
 24 55  1  0  0  0  0
 25 56  1  0  0  0  0
 30 57  1  0  0  0  0
 31 58  1  0  0  0  0
 33 59  1  0  0  0  0
 34 60  1  0  0  0  0
 34 61  1  0  0  0  0
 34 62  1  0  0  0  0
 35 63  1  0  0  0  0
 36 64  1  0  0  0  0
 38 65  1  0  0  0  0
 39 66  1  0  0  0  0
 68 69  4  0  0  0  0
 69 70  1  0  0  0  0
 70 71  2  0  0  0  0
 71 72  4  0  0  0  0
 67 73  1  0  0  0  0
 69 73  4  0  0  0  0
 72 73  4  0  0  0  0
 72 74  4  0  0  0  0
 74 75  1  0  0  0  0
 75 76  4  0  0  0  0
 76 77  4  0  0  0  0
 77 78  4  0  0  0  0
 78 79  1  0  0  0  0
 79 80  1  0  0  0  0
 78 81  4  0  0  0  0
 75 82  4  0  0  0  0
 81 82  4  0  0  0  0
 74 83  4  0  0  0  0
 83 84  4  0  0  0  0
 84 85  2  0  0  0  0
 67 86  1  0  0  0  0
 83 86  4  0  0  0  0
 85 87  4  0  0  0  0
 86 87  4  0  0  0  0
 87 88  4  0  0  0  0
 88 89  4  0  0  0  0
 89 90  4  0  0  0  0
 90 91  2  0  0  0  0
 91 92  4  0  0  0  0
 67 93  1  0  0  0  0
 89 93  4  0  0  0  0
 92 93  4  0  0  0  0
 92 94  4  0  0  0  0
 94 95  1  0  0  0  0
 95 96  4  0  0  0  0
 96 97  4  0  0  0  0
 97 98  4  0  0  0  0
 98 99  1  0  0  0  0
 99100  1  0  0  0  0
 98101  4  0  0  0  0
 95102  4  0  0  0  0
101102  4  0  0  0  0
 94103  4  0  0  0  0
103104  4  0  0  0  0
104105  2  0  0  0  0
 68106  4  0  0  0  0
105106  1  0  0  0  0
 67107  1  0  0  0  0
103107  4  0  0  0  0
106107  4  0  0  0  0
 68108  1  0  0  0  0
 70109  1  0  0  0  0
 71110  1  0  0  0  0
 76111  1  0  0  0  0
 77112  1  0  0  0  0
 79113  1  0  0  0  0
 80114  1  0  0  0  0
 80115  1  0  0  0  0
 80116  1  0  0  0  0
 81117  1  0  0  0  0
 82118  1  0  0  0  0
 84119  1  0  0  0  0
 85120  1  0  0  0  0
 90121  1  0  0  0  0
 91122  1  0  0  0  0
 96123  1  0  0  0  0
 97124  1  0  0  0  0
 99125  1  0  0  0  0
100126  1  0  0  0  0
100127  1  0  0  0  0
100128  1  0  0  0  0
101129  1  0  0  0  0
102130  1  0  0  0  0
104131  1  0  0  0  0
105132  1  0  0  0  0
 22134  4  0  0  0  0
133134  3  0  0  0  0
133135  4  0  0  0  0
135136  3  0  0  0  0
137138  3  0  0  0  0
137139  4  0  0  0  0
139140  3  0  0  0  0
141142  3  0  0  0  0
141143  4  0  0  0  0
 88144  4  0  0  0  0
143144  3  0  0  0  0
136146  4  0  0  0  0
146147  4  0  0  0  0
147148  4  0  0  0  0
148149  2  0  0  0  0
149150  4  0  0  0  0
145151  1  0  0  0  0
147151  4  0  0  0  0
150151  4  0  0  0  0
150152  4  0  0  0  0
152153  1  0  0  0  0
153154  4  0  0  0  0
154155  4  0  0  0  0
155156  4  0  0  0  0
156157  1  0  0  0  0
157158  1  0  0  0  0
156159  4  0  0  0  0
153160  4  0  0  0  0
159160  4  0  0  0  0
152161  4  0  0  0  0
161162  4  0  0  0  0
162163  2  0  0  0  0
145164  1  0  0  0  0
161164  4  0  0  0  0
163165  4  0  0  0  0
164165  4  0  0  0  0
138166  4  0  0  0  0
165166  4  0  0  0  0
166167  4  0  0  0  0
167168  4  0  0  0  0
168169  2  0  0  0  0
169170  4  0  0  0  0
145171  1  0  0  0  0
167171  4  0  0  0  0
170171  4  0  0  0  0
170172  4  0  0  0  0
172173  1  0  0  0  0
173174  4  0  0  0  0
174175  4  0  0  0  0
175176  4  0  0  0  0
176177  1  0  0  0  0
177178  1  0  0  0  0
176179  4  0  0  0  0
173180  4  0  0  0  0
179180  4  0  0  0  0
172181  4  0  0  0  0
181182  4  0  0  0  0
182183  2  0  0  0  0
146184  4  0  0  0  0
183184  4  0  0  0  0
145185  1  0  0  0  0
181185  4  0  0  0  0
184185  4  0  0  0  0
148186  1  0  0  0  0
149187  1  0  0  0  0
154188  1  0  0  0  0
155189  1  0  0  0  0
157190  1  0  0  0  0
158191  1  0  0  0  0
158192  1  0  0  0  0
158193  1  0  0  0  0
159194  1  0  0  0  0
160195  1  0  0  0  0
162196  1  0  0  0  0
163197  1  0  0  0  0
168198  1  0  0  0  0
169199  1  0  0  0  0
174200  1  0  0  0  0
175201  1  0  0  0  0
177202  1  0  0  0  0
178203  1  0  0  0  0
178204  1  0  0  0  0
178205  1  0  0  0  0
179206  1  0  0  0  0
180207  1  0  0  0  0
182208  1  0  0  0  0
183209  1  0  0  0  0
140211  4  0  0  0  0
211212  4  0  0  0  0
212213  4  0  0  0  0
213214  2  0  0  0  0
214215  4  0  0  0  0
210216  1  0  0  0  0
212216  4  0  0  0  0
215216  4  0  0  0  0
215217  4  0  0  0  0
217218  1  0  0  0  0
218219  4  0  0  0  0
219220  4  0  0  0  0
220221  4  0  0  0  0
221222  1  0  0  0  0
222223  1  0  0  0  0
221224  4  0  0  0  0
218225  4  0  0  0  0
224225  4  0  0  0  0
217226  4  0  0  0  0
226227  4  0  0  0  0
227228  2  0  0  0  0
210229  1  0  0  0  0
226229  4  0  0  0  0
228230  4  0  0  0  0
229230  4  0  0  0  0
142231  4  0  0  0  0
230231  4  0  0  0  0
231232  4  0  0  0  0
232233  4  0  0  0  0
233234  2  0  0  0  0
234235  4  0  0  0  0
210236  1  0  0  0  0
232236  4  0  0  0  0
235236  4  0  0  0  0
235237  4  0  0  0  0
237238  1  0  0  0  0
238239  4  0  0  0  0
239240  4  0  0  0  0
240241  4  0  0  0  0
241242  1  0  0  0  0
242243  1  0  0  0  0
241244  4  0  0  0  0
238245  4  0  0  0  0
244245  4  0  0  0  0
237246  4  0  0  0  0
246247  4  0  0  0  0
247248  2  0  0  0  0
211249  4  0  0  0  0
248249  4  0  0  0  0
210250  1  0  0  0  0
246250  4  0  0  0  0
249250  4  0  0  0  0
213251  1  0  0  0  0
214252  1  0  0  0  0
219253  1  0  0  0  0
220254  1  0  0  0  0
222255  1  0  0  0  0
223256  1  0  0  0  0
223257  1  0  0  0  0
223258  1  0  0  0  0
224259  1  0  0  0  0
225260  1  0  0  0  0
227261  1  0  0  0  0
228262  1  0  0  0  0
233263  1  0  0  0  0
234264  1  0  0  0  0
239265  1  0  0  0  0
240266  1  0  0  0  0
242267  1  0  0  0  0
243268  1  0  0  0  0
243269  1  0  0  0  0
243270  1  0  0  0  0
244271  1  0  0  0  0
245272  1  0  0  0  0
247273  1  0  0  0  0
248274  1  0  0  0  0
M  END
