 xtb: 6.5.1 (b24c23e)
          07302213563D

136155  0     0  0            999 V2000
   14.4433    0.0245    0.0398 Cu  0  0  0  0  0  0  0  0  0  0  0  0
   11.0393    0.1334    0.0873 C   0  0  0  0  0  0  0  0  0  0  0  0
   11.6697   -0.1854    1.2806 C   0  0  0  0  0  0  0  0  0  0  0  0
   10.9901   -0.5058    2.5034 C   0  0  0  0  0  0  0  0  0  0  0  0
   11.9453   -0.7562    3.4324 C   0  0  0  0  0  0  0  0  0  0  0  0
   13.2185   -0.5786    2.7873 C   0  0  0  0  0  0  0  0  0  0  0  0
   13.0198   -0.2408    1.4801 N   0  0  0  0  0  0  0  0  0  0  0  0
   14.4625   -0.7475    3.4002 C   0  0  0  0  0  0  0  0  0  0  0  0
   14.4721   -1.0865    4.8446 C   0  0  0  0  0  0  0  0  0  0  0  0
   13.9360   -0.1993    5.7813 C   0  0  0  0  0  0  0  0  0  0  0  0
   13.9446   -0.5111    7.1309 C   0  0  0  0  0  0  0  0  0  0  0  0
   14.4890   -1.7208    7.5303 C   0  0  0  0  0  0  0  0  0  0  0  0
   14.5072   -2.1201    9.2371 S   0  0  0  0  0  0  0  0  0  0  0  0
   14.4401   -0.9330   10.0372 O   0  0  0  0  0  0  0  0  0  0  0  0
   13.0696   -2.8725    9.3175 O   0  0  0  0  0  0  0  0  0  0  0  0
   15.5283   -3.0836    9.5273 O   0  0  0  0  0  0  0  0  0  0  0  0
   15.0301   -2.6202    6.6260 C   0  0  0  0  0  0  0  0  0  0  0  0
   15.0206   -2.2956    5.2795 C   0  0  0  0  0  0  0  0  0  0  0  0
   15.6983   -0.6232    2.7619 C   0  0  0  0  0  0  0  0  0  0  0  0
   16.9743   -0.7308    3.4115 C   0  0  0  0  0  0  0  0  0  0  0  0
   17.9223   -0.5379    2.4599 C   0  0  0  0  0  0  0  0  0  0  0  0
   15.8892   -0.3549    1.4328 N   0  0  0  0  0  0  0  0  0  0  0  0
   17.2334   -0.3047    1.2261 C   0  0  0  0  0  0  0  0  0  0  0  0
   17.8715   -0.0702   -0.0047 C   0  0  0  0  0  0  0  0  0  0  0  0
   17.2155    0.1939   -1.2201 C   0  0  0  0  0  0  0  0  0  0  0  0
   17.8840    0.3847   -2.4722 C   0  0  0  0  0  0  0  0  0  0  0  0
   16.9237    0.6261   -3.4001 C   0  0  0  0  0  0  0  0  0  0  0  0
   15.6610    0.5932   -2.7171 C   0  0  0  0  0  0  0  0  0  0  0  0
   15.8713    0.3172   -1.3925 N   0  0  0  0  0  0  0  0  0  0  0  0
   14.4180    0.7917   -3.3221 C   0  0  0  0  0  0  0  0  0  0  0  0
   14.4084    1.1303   -4.7664 C   0  0  0  0  0  0  0  0  0  0  0  0
   13.7819    0.2855   -5.6860 C   0  0  0  0  0  0  0  0  0  0  0  0
   13.7677    0.6004   -7.0349 C   0  0  0  0  0  0  0  0  0  0  0  0
   14.3843    1.7688   -7.4516 C   0  0  0  0  0  0  0  0  0  0  0  0
   14.3558    2.1828   -9.1554 S   0  0  0  0  0  0  0  0  0  0  0  0
   14.5048    3.5966   -9.3455 O   0  0  0  0  0  0  0  0  0  0  0  0
   15.7526    1.4857   -9.6044 O   0  0  0  0  0  0  0  0  0  0  0  0
   13.2746    1.5110   -9.8114 O   0  0  0  0  0  0  0  0  0  0  0  0
   15.0104    2.6286   -6.5636 C   0  0  0  0  0  0  0  0  0  0  0  0
   15.0214    2.3021   -5.2177 C   0  0  0  0  0  0  0  0  0  0  0  0
   13.1834    0.7027   -2.6741 C   0  0  0  0  0  0  0  0  0  0  0  0
   11.9067    0.9644   -3.2827 C   0  0  0  0  0  0  0  0  0  0  0  0
   10.9639    0.7768   -2.3267 C   0  0  0  0  0  0  0  0  0  0  0  0
   11.6555    0.4110   -1.1235 C   0  0  0  0  0  0  0  0  0  0  0  0
   13.0001    0.3776   -1.3614 N   0  0  0  0  0  0  0  0  0  0  0  0
    9.9549    0.1694    0.1027 H   0  0  0  0  0  0  0  0  0  0  0  0
    9.9184   -0.5406    2.6195 H   0  0  0  0  0  0  0  0  0  0  0  0
   11.8073   -1.0470    4.4613 H   0  0  0  0  0  0  0  0  0  0  0  0
   13.5259    0.7472    5.4488 H   0  0  0  0  0  0  0  0  0  0  0  0
   13.5418    0.1738    7.8664 H   0  0  0  0  0  0  0  0  0  0  0  0
   12.9317   -3.2363   10.2004 H   0  0  0  0  0  0  0  0  0  0  0  0
   15.4530   -3.5543    6.9738 H   0  0  0  0  0  0  0  0  0  0  0  0
   15.4297   -2.9894    4.5543 H   0  0  0  0  0  0  0  0  0  0  0  0
   17.1225   -0.9142    4.4633 H   0  0  0  0  0  0  0  0  0  0  0  0
   18.9943   -0.5444    2.5750 H   0  0  0  0  0  0  0  0  0  0  0  0
   18.9514    0.3308   -2.6147 H   0  0  0  0  0  0  0  0  0  0  0  0
   17.0543    0.7969   -4.4564 H   0  0  0  0  0  0  0  0  0  0  0  0
   13.3149   -0.6295   -5.3409 H   0  0  0  0  0  0  0  0  0  0  0  0
   13.2837   -0.0466   -7.7557 H   0  0  0  0  0  0  0  0  0  0  0  0
   16.0698    1.8787  -10.4262 H   0  0  0  0  0  0  0  0  0  0  0  0
   15.4723    3.5400   -6.9221 H   0  0  0  0  0  0  0  0  0  0  0  0
   15.4940    2.9676   -4.5048 H   0  0  0  0  0  0  0  0  0  0  0  0
   11.7584    1.2654   -4.3073 H   0  0  0  0  0  0  0  0  0  0  0  0
    9.8940    0.8829   -2.4121 H   0  0  0  0  0  0  0  0  0  0  0  0
   33.0422    0.0380   -0.0292 Cu  0  0  0  0  0  0  0  0  0  0  0  0
   36.4463    0.1565   -0.0333 C   0  0  0  0  0  0  0  0  0  0  0  0
   35.8158    0.3010   -1.2599 C   0  0  0  0  0  0  0  0  0  0  0  0
   36.4954    0.4548   -2.5146 C   0  0  0  0  0  0  0  0  0  0  0  0
   35.5401    0.5655   -3.4703 C   0  0  0  0  0  0  0  0  0  0  0  0
   34.2670    0.4924   -2.8052 C   0  0  0  0  0  0  0  0  0  0  0  0
   34.4657    0.3235   -1.4657 N   0  0  0  0  0  0  0  0  0  0  0  0
   33.0230    0.5619   -3.4372 C   0  0  0  0  0  0  0  0  0  0  0  0
   33.0134    0.7803   -4.9046 C   0  0  0  0  0  0  0  0  0  0  0  0
   33.5494    1.9507   -5.4474 C   0  0  0  0  0  0  0  0  0  0  0  0
   33.5409    2.1593   -6.8168 C   0  0  0  0  0  0  0  0  0  0  0  0
   32.9967    1.1825   -7.6348 C   0  0  0  0  0  0  0  0  0  0  0  0
   32.9782    1.4419   -9.3683 S   0  0  0  0  0  0  0  0  0  0  0  0
   33.0448    2.8406   -9.6734 O   0  0  0  0  0  0  0  0  0  0  0  0
   34.4160    0.7729   -9.7212 O   0  0  0  0  0  0  0  0  0  0  0  0
   31.9572    0.6534   -9.9937 O   0  0  0  0  0  0  0  0  0  0  0  0
   32.4557    0.0127   -7.1265 C   0  0  0  0  0  0  0  0  0  0  0  0
   32.4650   -0.1829   -5.7553 C   0  0  0  0  0  0  0  0  0  0  0  0
   31.7871    0.4414   -2.7981 C   0  0  0  0  0  0  0  0  0  0  0  0
   30.5111    0.5811   -3.4415 C   0  0  0  0  0  0  0  0  0  0  0  0
   29.5632    0.4087   -2.4860 C   0  0  0  0  0  0  0  0  0  0  0  0
   31.5963    0.1999   -1.4639 N   0  0  0  0  0  0  0  0  0  0  0  0
   30.2521    0.1699   -1.2533 C   0  0  0  0  0  0  0  0  0  0  0  0
   29.6140   -0.0668   -0.0228 C   0  0  0  0  0  0  0  0  0  0  0  0
   30.2701   -0.2703    1.2041 C   0  0  0  0  0  0  0  0  0  0  0  0
   29.6016   -0.5558    2.4381 C   0  0  0  0  0  0  0  0  0  0  0  0
   30.5620   -0.6740    3.3896 C   0  0  0  0  0  0  0  0  0  0  0  0
   31.8245   -0.4520    2.7428 C   0  0  0  0  0  0  0  0  0  0  0  0
   31.6143   -0.2191    1.4099 N   0  0  0  0  0  0  0  0  0  0  0  0
   33.0676   -0.4905    3.3783 C   0  0  0  0  0  0  0  0  0  0  0  0
   33.0771   -0.7093    4.8456 C   0  0  0  0  0  0  0  0  0  0  0  0
   33.7036   -1.8340    5.3882 C   0  0  0  0  0  0  0  0  0  0  0  0
   33.7175   -2.0397    6.7581 C   0  0  0  0  0  0  0  0  0  0  0  0
   33.1007   -1.1078    7.5768 C   0  0  0  0  0  0  0  0  0  0  0  0
   33.1288   -1.3525    9.3130 S   0  0  0  0  0  0  0  0  0  0  0  0
   32.9789   -0.1091   10.0120 O   0  0  0  0  0  0  0  0  0  0  0  0
   31.7324   -2.1669    9.4722 O   0  0  0  0  0  0  0  0  0  0  0  0
   34.2103   -2.2185    9.6747 O   0  0  0  0  0  0  0  0  0  0  0  0
   32.4746    0.0192    7.0690 C   0  0  0  0  0  0  0  0  0  0  0  0
   32.4639    0.2128    5.6977 C   0  0  0  0  0  0  0  0  0  0  0  0
   34.3022   -0.3338    2.7433 C   0  0  0  0  0  0  0  0  0  0  0  0
   35.5789   -0.3153    3.4055 C   0  0  0  0  0  0  0  0  0  0  0  0
   36.5217   -0.1367    2.4478 C   0  0  0  0  0  0  0  0  0  0  0  0
   35.8301   -0.0325    1.1945 C   0  0  0  0  0  0  0  0  0  0  0  0
   34.4854   -0.1513    1.4033 N   0  0  0  0  0  0  0  0  0  0  0  0
   37.5307    0.1954   -0.0343 H   0  0  0  0  0  0  0  0  0  0  0  0
   37.5671    0.4651   -2.6354 H   0  0  0  0  0  0  0  0  0  0  0  0
   35.6781    0.6754   -4.5339 H   0  0  0  0  0  0  0  0  0  0  0  0
   33.9593    2.7076   -4.7889 H   0  0  0  0  0  0  0  0  0  0  0  0
   33.9436    3.0675   -7.2473 H   0  0  0  0  0  0  0  0  0  0  0  0
   34.5537    0.7609  -10.6761 H   0  0  0  0  0  0  0  0  0  0  0  0
   32.0329   -0.7270   -7.7947 H   0  0  0  0  0  0  0  0  0  0  0  0
   32.0561   -1.0955   -5.3376 H   0  0  0  0  0  0  0  0  0  0  0  0
   30.3630    0.7990   -4.4867 H   0  0  0  0  0  0  0  0  0  0  0  0
   28.4912    0.4447   -2.5955 H   0  0  0  0  0  0  0  0  0  0  0  0
   28.5343   -0.6588    2.5506 H   0  0  0  0  0  0  0  0  0  0  0  0
   30.4313   -0.9055    4.4342 H   0  0  0  0  0  0  0  0  0  0  0  0
   34.1708   -2.5568    4.7296 H   0  0  0  0  0  0  0  0  0  0  0  0
   34.2014   -2.9071    7.1890 H   0  0  0  0  0  0  0  0  0  0  0  0
   31.4153   -2.1063   10.3812 H   0  0  0  0  0  0  0  0  0  0  0  0
   32.0125    0.7336    7.7387 H   0  0  0  0  0  0  0  0  0  0  0  0
   31.9912    1.0946    5.2810 H   0  0  0  0  0  0  0  0  0  0  0  0
   35.7271   -0.4138    4.4688 H   0  0  0  0  0  0  0  0  0  0  0  0
   37.5916   -0.0697    2.5663 H   0  0  0  0  0  0  0  0  0  0  0  0
   19.2766   -0.0982   -0.0193 C   0  0  0  0  0  0  0  0  0  0  0  0
   20.5008   -0.1161   -0.0258 C   0  0  0  0  0  0  0  0  0  0  0  0
   21.8434   -0.1291   -0.0293 C   0  0  0  0  0  0  0  0  0  0  0  0
   23.0738   -0.1350   -0.0282 C   0  0  0  0  0  0  0  0  0  0  0  0
   24.4117   -0.1356   -0.0260 C   0  0  0  0  0  0  0  0  0  0  0  0
   25.6421   -0.1294   -0.0224 C   0  0  0  0  0  0  0  0  0  0  0  0
   26.9847   -0.1163   -0.0205 C   0  0  0  0  0  0  0  0  0  0  0  0
   28.2089   -0.0981   -0.0196 C   0  0  0  0  0  0  0  0  0  0  0  0
  2  3  4  0  0  0  0
  3  4  1  0  0  0  0
  4  5  2  0  0  0  0
  5  6  4  0  0  0  0
  1  7  1  0  0  0  0
  3  7  4  0  0  0  0
  6  7  4  0  0  0  0
  6  8  4  0  0  0  0
  8  9  1  0  0  0  0
  9 10  4  0  0  0  0
 10 11  4  0  0  0  0
 11 12  4  0  0  0  0
 12 13  1  0  0  0  0
 13 14  2  0  0  0  0
 13 15  1  0  0  0  0
 13 16  2  0  0  0  0
 12 17  4  0  0  0  0
  9 18  4  0  0  0  0
 17 18  4  0  0  0  0
  8 19  4  0  0  0  0
 19 20  4  0  0  0  0
 20 21  2  0  0  0  0
  1 22  1  0  0  0  0
 19 22  4  0  0  0  0
 21 23  4  0  0  0  0
 22 23  4  0  0  0  0
 23 24  4  0  0  0  0
 24 25  4  0  0  0  0
 25 26  4  0  0  0  0
 26 27  2  0  0  0  0
 27 28  4  0  0  0  0
  1 29  1  0  0  0  0
 25 29  4  0  0  0  0
 28 29  4  0  0  0  0
 28 30  4  0  0  0  0
 30 31  1  0  0  0  0
 31 32  4  0  0  0  0
 32 33  4  0  0  0  0
 33 34  4  0  0  0  0
 34 35  1  0  0  0  0
 35 36  2  0  0  0  0
 35 37  1  0  0  0  0
 35 38  2  0  0  0  0
 34 39  4  0  0  0  0
 31 40  4  0  0  0  0
 39 40  4  0  0  0  0
 30 41  4  0  0  0  0
 41 42  4  0  0  0  0
 42 43  2  0  0  0  0
  2 44  4  0  0  0  0
 43 44  1  0  0  0  0
  1 45  1  0  0  0  0
 41 45  4  0  0  0  0
 44 45  4  0  0  0  0
  2 46  1  0  0  0  0
  4 47  1  0  0  0  0
  5 48  1  0  0  0  0
 10 49  1  0  0  0  0
 11 50  1  0  0  0  0
 15 51  1  0  0  0  0
 17 52  1  0  0  0  0
 18 53  1  0  0  0  0
 20 54  1  0  0  0  0
 21 55  1  0  0  0  0
 26 56  1  0  0  0  0
 27 57  1  0  0  0  0
 32 58  1  0  0  0  0
 33 59  1  0  0  0  0
 37 60  1  0  0  0  0
 39 61  1  0  0  0  0
 40 62  1  0  0  0  0
 42 63  1  0  0  0  0
 43 64  1  0  0  0  0
 66 67  4  0  0  0  0
 67 68  1  0  0  0  0
 68 69  2  0  0  0  0
 69 70  4  0  0  0  0
 65 71  1  0  0  0  0
 67 71  4  0  0  0  0
 70 71  4  0  0  0  0
 70 72  4  0  0  0  0
 72 73  1  0  0  0  0
 73 74  4  0  0  0  0
 74 75  4  0  0  0  0
 75 76  4  0  0  0  0
 76 77  1  0  0  0  0
 77 78  2  0  0  0  0
 77 79  1  0  0  0  0
 77 80  2  0  0  0  0
 76 81  4  0  0  0  0
 73 82  4  0  0  0  0
 81 82  4  0  0  0  0
 72 83  4  0  0  0  0
 83 84  4  0  0  0  0
 84 85  2  0  0  0  0
 65 86  1  0  0  0  0
 83 86  4  0  0  0  0
 85 87  4  0  0  0  0
 86 87  4  0  0  0  0
 87 88  4  0  0  0  0
 88 89  4  0  0  0  0
 89 90  4  0  0  0  0
 90 91  2  0  0  0  0
 91 92  4  0  0  0  0
 65 93  1  0  0  0  0
 89 93  4  0  0  0  0
 92 93  4  0  0  0  0
 92 94  4  0  0  0  0
 94 95  1  0  0  0  0
 95 96  4  0  0  0  0
 96 97  4  0  0  0  0
 97 98  4  0  0  0  0
 98 99  1  0  0  0  0
 99100  2  0  0  0  0
 99101  1  0  0  0  0
 99102  2  0  0  0  0
 98103  4  0  0  0  0
 95104  4  0  0  0  0
103104  4  0  0  0  0
 94105  4  0  0  0  0
105106  4  0  0  0  0
106107  2  0  0  0  0
 66108  4  0  0  0  0
107108  1  0  0  0  0
 65109  1  0  0  0  0
105109  4  0  0  0  0
108109  4  0  0  0  0
 66110  1  0  0  0  0
 68111  1  0  0  0  0
 69112  1  0  0  0  0
 74113  1  0  0  0  0
 75114  1  0  0  0  0
 79115  1  0  0  0  0
 81116  1  0  0  0  0
 82117  1  0  0  0  0
 84118  1  0  0  0  0
 85119  1  0  0  0  0
 90120  1  0  0  0  0
 91121  1  0  0  0  0
 96122  1  0  0  0  0
 97123  1  0  0  0  0
101124  1  0  0  0  0
103125  1  0  0  0  0
104126  1  0  0  0  0
106127  1  0  0  0  0
107128  1  0  0  0  0
 24129  4  0  0  0  0
129130  3  0  0  0  0
130131  4  0  0  0  0
131132  3  0  0  0  0
132133  4  0  0  0  0
133134  3  0  0  0  0
134135  4  0  0  0  0
 88136  4  0  0  0  0
135136  3  0  0  0  0
M  END
