183

Zn 33.999882 -0.034040 0.033308
C 30.658289 0.109248 0.023806
C 31.320557 1.148322 -0.492984
C 30.670009 2.296178 -1.113169
C 31.610224 3.144663 -1.485613
C 32.915147 2.583799 -1.108747
N 32.737993 1.310294 -0.486984
C 34.107269 3.185913 -1.301384
C 34.156992 4.531446 -1.918105
C 34.713933 4.699425 -3.194787
C 34.777191 5.970430 -3.773444
C 34.288183 7.086968 -3.080514
N 34.353093 8.386785 -3.673023
C 33.737134 6.921063 -1.801960
C 33.674219 5.650711 -1.221946
C 35.398457 2.560785 -0.911316
C 36.681913 3.273426 -0.905146
C 37.616426 2.418056 -0.543259
N 35.541119 1.318895 -0.562398
C 36.936312 1.149664 -0.311730
C 37.530510 -0.008471 0.018676
C 36.766927 -1.254483 0.251481
C 37.297448 -2.470668 0.231629
C 36.254552 -3.402267 0.615374
C 35.156918 -2.692188 0.849143
N 35.390765 -1.300346 0.628717
C 33.878305 -3.263212 1.344653
C 33.901125 -4.601199 1.984563
C 34.640077 -4.805164 3.160092
C 34.681053 -6.068818 3.756553
C 33.988870 -7.143888 3.181613
N 34.031268 -8.436244 3.792221
C 33.257410 -6.944328 2.002407
C 33.216358 -5.681376 1.404595
C 32.716248 -2.592102 1.228564
C 31.408916 -3.034736 1.710509
C 30.547254 -2.108152 1.337802
C 31.295711 -1.069322 0.632157
N 32.560571 -1.340782 0.562371
H 29.574926 0.127211 0.000347
H 29.606698 2.439720 -1.256418
H 31.422424 4.086532 -1.984207
H 35.096994 3.845806 -3.740581
H 35.207539 6.085353 -4.760304
H 34.762422 8.520731 -4.624535
H 33.992102 9.224688 -3.164616
H 33.358940 7.775497 -1.254963
H 33.251542 5.537749 -0.231077
H 36.852831 4.313825 -1.148596
H 38.670201 2.643304 -0.447119
H 38.323129 -2.725915 0.001222
H 36.363299 -4.474243 0.717541
H 35.181059 -3.984402 3.615083
H 35.252433 -6.210369 4.665295
H 34.574257 -8.595153 4.670158
H 33.519768 -9.243577 3.370972
H 32.722346 -7.767319 1.545566
H 32.654921 -5.544807 0.488430
H 31.167079 -3.932787 2.263473
H 29.482701 -2.124396 1.531193
Zn 56.249428 0.017851 0.005449
C 59.591022 -0.069239 0.119629
C 58.928753 -1.074096 0.700152
C 59.579301 -2.225238 1.314217
C 58.639087 -3.004479 1.815641
C 57.334163 -2.380470 1.556391
N 57.511317 -1.158589 0.838471
C 56.142041 -2.873716 1.951814
C 56.092318 -4.131192 2.732555
C 55.535378 -5.288114 2.167165
C 55.472120 -6.472686 2.906819
C 55.961127 -6.512048 4.220311
N 55.896217 -7.724084 4.976326
C 56.512177 -5.354712 4.788463
C 56.575091 -4.169370 4.050104
C 54.850854 -2.203197 1.646295
C 53.567398 -2.591807 2.243687
C 52.632884 -1.817562 1.730692
N 54.708191 -1.226199 0.803972
C 53.312998 -0.923763 0.801419
C 52.718800 -0.008471 0.018676
C 53.482383 0.874024 -0.891238
C 52.951862 1.529452 -1.915891
C 53.994758 2.364035 -2.480347
C 55.092392 2.166542 -1.759336
N 54.858546 1.213790 -0.721032
C 56.371006 2.895053 -1.961499
C 56.348186 4.167688 -2.723138
C 55.609234 5.260183 -2.243632
C 55.568257 6.455533 -2.967322
C 56.260440 6.570327 -4.181057
N 56.218042 7.793326 -4.920854
C 56.991900 5.477201 -4.666267
C 57.032952 4.281114 -3.943909
C 57.533063 2.427488 -1.466274
C 58.840394 3.073754 -1.568921
C 59.702057 2.251142 -1.002547
C 58.953599 1.089010 -0.526574
N 57.688739 1.180832 -0.791393
H 60.674384 -0.098717 0.121639
H 60.642612 -2.423946 1.354710
H 58.826886 -3.940461 2.325198
H 55.152316 -5.271384 1.154112
H 55.041772 -7.358727 2.457340
H 55.486888 -8.591174 4.562234
H 56.257208 -7.763292 5.955623
H 56.890370 -5.370889 5.802861
H 56.997769 -3.281071 4.503431
H 53.396479 -3.369568 2.976343
H 51.579110 -1.861884 1.971555
H 51.926181 1.478439 -2.255945
H 53.886012 3.041485 -3.317384
H 55.068252 5.185923 -1.308137
H 54.996878 7.291175 -2.583200
H 55.675053 8.612884 -4.568221
H 56.729543 7.888289 -5.826513
H 57.526964 5.551151 -5.604643
H 57.594390 3.442036 -4.336285
H 59.082231 4.030844 -2.011915
H 60.766610 2.421308 -0.909233
C 39.351682 -0.008471 0.018676
C 40.573600 -0.008471 0.018676
C 49.675711 -0.008471 0.018676
C 50.897628 -0.008471 0.018676
Zn 45.160131 -0.038500 0.042592
C 41.675946 0.017804 -0.039252
C 42.332806 1.127699 -0.423199
C 41.688081 2.359785 -0.883318
C 42.626104 3.255383 -1.117827
C 43.928953 2.647593 -0.828059
N 43.752535 1.297573 -0.390550
C 45.112989 3.289953 -0.915070
C 45.134367 4.710048 -1.329186
C 45.000695 5.053342 -2.683007
C 45.017721 6.396083 -3.072130
C 45.171310 7.407471 -2.112456
N 45.189237 8.780798 -2.511245
C 45.306963 7.063381 -0.759390
C 45.287859 5.721126 -0.369017
C 46.416478 2.646143 -0.610912
C 47.695392 3.367248 -0.576458
C 48.646879 2.490501 -0.330579
N 46.579920 1.376179 -0.402451
C 47.984168 1.198017 -0.214519
C 48.599259 0.017804 -0.039252
C 47.853901 -1.256624 0.055879
C 48.402402 -2.456256 -0.089466
C 47.369879 -3.436763 0.180716
C 46.259978 -2.770126 0.475903
N 46.474503 -1.360439 0.407937
C 44.994762 -3.406392 0.918043
C 45.047946 -4.794407 1.437806
C 44.402984 -5.837329 0.751602
C 44.469132 -7.146450 1.237890
C 45.184777 -7.428394 2.411144
N 45.248942 -8.767038 2.910762
C 45.838016 -6.389358 3.091396
C 45.773724 -5.080236 2.604785
C 43.818815 -2.750811 0.875350
C 42.536220 -3.264658 1.344972
C 41.647953 -2.328835 1.081512
C 42.351389 -1.208460 0.446785
N 43.621139 -1.447243 0.326240
H 40.628718 2.541596 -1.007198
H 42.436708 4.266032 -1.457216
H 44.881559 4.281042 -3.433531
H 44.911771 6.648243 -4.119944
H 45.090130 9.046823 -3.516338
H 45.306733 9.541008 -1.804282
H 45.427436 7.834854 -0.008860
H 45.393352 5.468130 0.679177
H 47.854368 4.426368 -0.729865
H 49.701942 2.715310 -0.250062
H 49.433714 -2.672368 -0.333202
H 47.495597 -4.511927 0.179102
H 43.851814 -5.635091 -0.159214
H 43.964527 -7.940731 0.700254
H 45.778853 -8.987159 3.783941
H 44.763585 -9.547500 2.413896
H 46.396542 -6.593915 3.997465
H 46.284348 -4.287843 3.139945
H 42.328601 -4.212235 1.824868
H 40.593513 -2.395882 1.312813
