 xtb: 6.5.1 (b24c23e)
          07302208543D

236275  0     0  0            999 V2000
   50.5231   -0.0131   -0.0531 Cu  0  0  0  0  0  0  0  0  0  0  0  0
   47.1165   -0.0253   -0.0544 C   0  0  0  0  0  0  0  0  0  0  0  0
   47.7443   -1.2618   -0.0760 C   0  0  0  0  0  0  0  0  0  0  0  0
   47.0618   -2.5238   -0.0594 C   0  0  0  0  0  0  0  0  0  0  0  0
   48.0151   -3.4884   -0.0583 C   0  0  0  0  0  0  0  0  0  0  0  0
   49.2898   -2.8239   -0.0859 C   0  0  0  0  0  0  0  0  0  0  0  0
   49.0936   -1.4728   -0.0891 N   0  0  0  0  0  0  0  0  0  0  0  0
   50.5311   -3.4649   -0.0780 C   0  0  0  0  0  0  0  0  0  0  0  0
   50.5369   -4.9497   -0.0682 C   0  0  0  0  0  0  0  0  0  0  0  0
   49.9939   -5.6705   -1.1318 C   0  0  0  0  0  0  0  0  0  0  0  0
   49.9998   -7.0570   -1.1244 C   0  0  0  0  0  0  0  0  0  0  0  0
   50.5470   -7.7400   -0.0410 C   0  0  0  0  0  0  0  0  0  0  0  0
   50.5703   -9.0975    0.0087 O   0  0  0  0  0  0  0  0  0  0  0  0
   51.0901   -7.0321    1.0295 C   0  0  0  0  0  0  0  0  0  0  0  0
   51.0858   -5.6486    1.0096 C   0  0  0  0  0  0  0  0  0  0  0  0
   51.7678   -2.8162   -0.0733 C   0  0  0  0  0  0  0  0  0  0  0  0
   53.0412   -3.4778   -0.1103 C   0  0  0  0  0  0  0  0  0  0  0  0
   53.9929   -2.5102   -0.1081 C   0  0  0  0  0  0  0  0  0  0  0  0
   51.9651   -1.4607   -0.0632 N   0  0  0  0  0  0  0  0  0  0  0  0
   53.3102   -1.2517   -0.0801 C   0  0  0  0  0  0  0  0  0  0  0  0
   53.9520   -0.0015   -0.0730 C   0  0  0  0  0  0  0  0  0  0  0  0
   53.3014    1.2441   -0.0515 C   0  0  0  0  0  0  0  0  0  0  0  0
   53.9745    2.5073   -0.0967 C   0  0  0  0  0  0  0  0  0  0  0  0
   53.0163    3.4682   -0.0762 C   0  0  0  0  0  0  0  0  0  0  0  0
   51.7486    2.7978   -0.0137 C   0  0  0  0  0  0  0  0  0  0  0  0
   51.9554    1.4437   -0.0095 N   0  0  0  0  0  0  0  0  0  0  0  0
   50.5074    3.4380    0.0077 C   0  0  0  0  0  0  0  0  0  0  0  0
   50.5029    4.9220    0.0389 C   0  0  0  0  0  0  0  0  0  0  0  0
   51.0812    5.6115    1.1075 C   0  0  0  0  0  0  0  0  0  0  0  0
   51.0768    6.9946    1.1447 C   0  0  0  0  0  0  0  0  0  0  0  0
   50.4953    7.7121    0.1010 C   0  0  0  0  0  0  0  0  0  0  0  0
   50.5114    9.0689    0.1670 O   0  0  0  0  0  0  0  0  0  0  0  0
   49.9184    7.0388   -0.9731 C   0  0  0  0  0  0  0  0  0  0  0  0
   49.9215    5.6526   -0.9978 C   0  0  0  0  0  0  0  0  0  0  0  0
   49.2706    2.7880    0.0005 C   0  0  0  0  0  0  0  0  0  0  0  0
   47.9918    3.4417    0.0689 C   0  0  0  0  0  0  0  0  0  0  0  0
   47.0451    2.4708    0.0424 C   0  0  0  0  0  0  0  0  0  0  0  0
   47.7361    1.2154   -0.0304 C   0  0  0  0  0  0  0  0  0  0  0  0
   49.0836    1.4366   -0.0509 N   0  0  0  0  0  0  0  0  0  0  0  0
   46.0314   -0.0292   -0.0390 H   0  0  0  0  0  0  0  0  0  0  0  0
   45.9897   -2.6423   -0.0420 H   0  0  0  0  0  0  0  0  0  0  0  0
   47.8742   -4.5570   -0.0290 H   0  0  0  0  0  0  0  0  0  0  0  0
   49.5785   -5.1402   -1.9817 H   0  0  0  0  0  0  0  0  0  0  0  0
   49.5822   -7.6123   -1.9575 H   0  0  0  0  0  0  0  0  0  0  0  0
   50.1642   -9.4851   -0.7782 H   0  0  0  0  0  0  0  0  0  0  0  0
   51.5089   -7.5762    1.8670 H   0  0  0  0  0  0  0  0  0  0  0  0
   51.4977   -5.0978    1.8478 H   0  0  0  0  0  0  0  0  0  0  0  0
   53.1855   -4.5455   -0.1456 H   0  0  0  0  0  0  0  0  0  0  0  0
   55.0641   -2.6309   -0.1246 H   0  0  0  0  0  0  0  0  0  0  0  0
   55.0437    2.6350   -0.1507 H   0  0  0  0  0  0  0  0  0  0  0  0
   53.1523    4.5368   -0.1182 H   0  0  0  0  0  0  0  0  0  0  0  0
   51.5230    5.0533    1.9254 H   0  0  0  0  0  0  0  0  0  0  0  0
   51.5184    7.5312    1.9754 H   0  0  0  0  0  0  0  0  0  0  0  0
   50.0795    9.4634   -0.6025 H   0  0  0  0  0  0  0  0  0  0  0  0
   49.4709    7.6014   -1.7855 H   0  0  0  0  0  0  0  0  0  0  0  0
   49.4835    5.1301   -1.8410 H   0  0  0  0  0  0  0  0  0  0  0  0
   47.8439    4.5071    0.1426 H   0  0  0  0  0  0  0  0  0  0  0  0
   45.9726    2.5807    0.0781 H   0  0  0  0  0  0  0  0  0  0  0  0
   83.2355    0.0057   -0.0283 Cu  0  0  0  0  0  0  0  0  0  0  0  0
   86.6420    0.0312   -0.0768 C   0  0  0  0  0  0  0  0  0  0  0  0
   86.0075    1.2611   -0.1658 C   0  0  0  0  0  0  0  0  0  0  0  0
   86.6837    2.5247   -0.2344 C   0  0  0  0  0  0  0  0  0  0  0  0
   85.7255    3.4833   -0.2817 C   0  0  0  0  0  0  0  0  0  0  0  0
   84.4540    2.8127   -0.2520 C   0  0  0  0  0  0  0  0  0  0  0  0
   84.6570    1.4645   -0.1771 N   0  0  0  0  0  0  0  0  0  0  0  0
   83.2103    3.4483   -0.2646 C   0  0  0  0  0  0  0  0  0  0  0  0
   83.1979    4.9293   -0.3680 C   0  0  0  0  0  0  0  0  0  0  0  0
   83.7240    5.5656   -1.4925 C   0  0  0  0  0  0  0  0  0  0  0  0
   83.7114    6.9482   -1.5952 C   0  0  0  0  0  0  0  0  0  0  0  0
   83.1747    7.7129   -0.5621 C   0  0  0  0  0  0  0  0  0  0  0  0
   83.1454    9.0698   -0.6200 O   0  0  0  0  0  0  0  0  0  0  0  0
   82.6492    7.0900    0.5684 C   0  0  0  0  0  0  0  0  0  0  0  0
   82.6596    5.7093    0.6582 C   0  0  0  0  0  0  0  0  0  0  0  0
   81.9774    2.7967   -0.1895 C   0  0  0  0  0  0  0  0  0  0  0  0
   80.7007    3.4486   -0.2610 C   0  0  0  0  0  0  0  0  0  0  0  0
   79.7539    2.4797   -0.1812 C   0  0  0  0  0  0  0  0  0  0  0  0
   81.7873    1.4448   -0.0764 N   0  0  0  0  0  0  0  0  0  0  0  0
   80.4425    1.2295   -0.0656 C   0  0  0  0  0  0  0  0  0  0  0  0
   79.8066   -0.0210    0.0065 C   0  0  0  0  0  0  0  0  0  0  0  0
   80.4630   -1.2612    0.0719 C   0  0  0  0  0  0  0  0  0  0  0  0
   79.7956   -2.5266    0.1336 C   0  0  0  0  0  0  0  0  0  0  0  0
   80.7588   -3.4807    0.1952 C   0  0  0  0  0  0  0  0  0  0  0  0
   82.0241   -2.8033    0.1817 C   0  0  0  0  0  0  0  0  0  0  0  0
   81.8110   -1.4529    0.0959 N   0  0  0  0  0  0  0  0  0  0  0  0
   83.2684   -3.4358    0.2263 C   0  0  0  0  0  0  0  0  0  0  0  0
   83.2818   -4.9153    0.3504 C   0  0  0  0  0  0  0  0  0  0  0  0
   82.7381   -5.5379    1.4764 C   0  0  0  0  0  0  0  0  0  0  0  0
   82.7539   -6.9158    1.6018 C   0  0  0  0  0  0  0  0  0  0  0  0
   83.3121   -7.6953    0.5904 C   0  0  0  0  0  0  0  0  0  0  0  0
   83.3090   -9.0450    0.7438 O   0  0  0  0  0  0  0  0  0  0  0  0
   83.8543   -7.0889   -0.5402 C   0  0  0  0  0  0  0  0  0  0  0  0
   83.8401   -5.7071   -0.6533 C   0  0  0  0  0  0  0  0  0  0  0  0
   84.5014   -2.7822    0.1658 C   0  0  0  0  0  0  0  0  0  0  0  0
   85.7840   -3.4266    0.2487 C   0  0  0  0  0  0  0  0  0  0  0  0
   86.7258   -2.4551    0.1567 C   0  0  0  0  0  0  0  0  0  0  0  0
   86.0283   -1.2079    0.0282 C   0  0  0  0  0  0  0  0  0  0  0  0
   84.6814   -1.4342    0.0425 N   0  0  0  0  0  0  0  0  0  0  0  0
   87.7272    0.0403   -0.0761 H   0  0  0  0  0  0  0  0  0  0  0  0
   87.7552    2.6488   -0.2362 H   0  0  0  0  0  0  0  0  0  0  0  0
   85.8609    4.5523   -0.3191 H   0  0  0  0  0  0  0  0  0  0  0  0
   84.1310    4.9710   -2.3028 H   0  0  0  0  0  0  0  0  0  0  0  0
   84.1153    7.4372   -2.4752 H   0  0  0  0  0  0  0  0  0  0  0  0
   83.5359    9.3951   -1.4422 H   0  0  0  0  0  0  0  0  0  0  0  0
   82.2388    7.6973    1.3657 H   0  0  0  0  0  0  0  0  0  0  0  0
   82.2611    5.2252    1.5429 H   0  0  0  0  0  0  0  0  0  0  0  0
   80.5511    4.5100   -0.3755 H   0  0  0  0  0  0  0  0  0  0  0  0
   78.6822    2.5933   -0.2109 H   0  0  0  0  0  0  0  0  0  0  0  0
   78.7258   -2.6605    0.1288 H   0  0  0  0  0  0  0  0  0  0  0  0
   80.6275   -4.5500    0.2346 H   0  0  0  0  0  0  0  0  0  0  0  0
   82.3144   -4.9310    2.2689 H   0  0  0  0  0  0  0  0  0  0  0  0
   82.3394   -7.4006    2.4771 H   0  0  0  0  0  0  0  0  0  0  0  0
   83.7197   -9.4857   -0.0121 H   0  0  0  0  0  0  0  0  0  0  0  0
   84.2838   -7.6999   -1.3270 H   0  0  0  0  0  0  0  0  0  0  0  0
   84.2518   -5.2369   -1.5395 H   0  0  0  0  0  0  0  0  0  0  0  0
   85.9375   -4.4864    0.3742 H   0  0  0  0  0  0  0  0  0  0  0  0
   87.7992   -2.5590    0.1804 H   0  0  0  0  0  0  0  0  0  0  0  0
   55.3619    0.0037   -0.0929 C   0  0  0  0  0  0  0  0  0  0  0  0
   56.5784    0.0035   -0.1005 C   0  0  0  0  0  0  0  0  0  0  0  0
   66.2685   -0.0134    0.0036 C   0  0  0  0  0  0  0  0  0  0  0  0
   67.4861   -0.0129    0.0085 C   0  0  0  0  0  0  0  0  0  0  0  0
   77.1789   -0.0312    0.0024 C   0  0  0  0  0  0  0  0  0  0  0  0
   78.3952   -0.0309    0.0029 C   0  0  0  0  0  0  0  0  0  0  0  0
   61.4228    0.0042   -0.0676 Cu  0  0  0  0  0  0  0  0  0  0  0  0
   57.9878    0.0073   -0.1011 C   0  0  0  0  0  0  0  0  0  0  0  0
   58.6326    1.1179    0.4705 C   0  0  0  0  0  0  0  0  0  0  0  0
   57.9561    2.1974    1.1232 C   0  0  0  0  0  0  0  0  0  0  0  0
   58.9095    3.0754    1.5276 C   0  0  0  0  0  0  0  0  0  0  0  0
   60.1756    2.5394    1.1174 C   0  0  0  0  0  0  0  0  0  0  0  0
   59.9754    1.3413    0.4852 N   0  0  0  0  0  0  0  0  0  0  0  0
   61.4129    3.1503    1.3372 C   0  0  0  0  0  0  0  0  0  0  0  0
   61.4090    4.5003    1.9503 C   0  0  0  0  0  0  0  0  0  0  0  0
   62.0710    4.7329    3.1589 C   0  0  0  0  0  0  0  0  0  0  0  0
   62.0636    5.9874    3.7420 C   0  0  0  0  0  0  0  0  0  0  0  0
   61.3948    7.0371    3.1149 C   0  0  0  0  0  0  0  0  0  0  0  0
   61.4096    8.2563    3.7129 O   0  0  0  0  0  0  0  0  0  0  0  0
   60.7347    6.8223    1.9072 C   0  0  0  0  0  0  0  0  0  0  0  0
   60.7412    5.5599    1.3347 C   0  0  0  0  0  0  0  0  0  0  0  0
   62.6533    2.5854    1.0303 C   0  0  0  0  0  0  0  0  0  0  0  0
   63.9151    3.2556    1.1587 C   0  0  0  0  0  0  0  0  0  0  0  0
   64.8743    2.3728    0.7790 C   0  0  0  0  0  0  0  0  0  0  0  0
   62.8624    1.3153    0.5617 N   0  0  0  0  0  0  0  0  0  0  0  0
   64.2065    1.1609    0.4137 C   0  0  0  0  0  0  0  0  0  0  0  0
   64.8604   -0.0097   -0.0126 C   0  0  0  0  0  0  0  0  0  0  0  0
   64.2109   -1.1750   -0.4593 C   0  0  0  0  0  0  0  0  0  0  0  0
   64.8795   -2.3925   -0.8042 C   0  0  0  0  0  0  0  0  0  0  0  0
   63.9262   -3.2644   -1.2220 C   0  0  0  0  0  0  0  0  0  0  0  0
   62.6671   -2.5827   -1.1350 C   0  0  0  0  0  0  0  0  0  0  0  0
   62.8713   -1.3164   -0.6544 N   0  0  0  0  0  0  0  0  0  0  0  0
   61.4330   -3.1367   -1.4837 C   0  0  0  0  0  0  0  0  0  0  0  0
   61.4397   -4.4855   -2.1003 C   0  0  0  0  0  0  0  0  0  0  0  0
   60.7614   -5.5458   -1.4977 C   0  0  0  0  0  0  0  0  0  0  0  0
   60.7681   -6.8083   -2.0700 C   0  0  0  0  0  0  0  0  0  0  0  0
   61.4514   -7.0218   -3.2649 C   0  0  0  0  0  0  0  0  0  0  0  0
   61.4802   -8.2415   -3.8619 O   0  0  0  0  0  0  0  0  0  0  0  0
   62.1297   -5.9709   -3.8796 C   0  0  0  0  0  0  0  0  0  0  0  0
   62.1248   -4.7165   -3.2960 C   0  0  0  0  0  0  0  0  0  0  0  0
   60.1936   -2.5205   -1.2944 C   0  0  0  0  0  0  0  0  0  0  0  0
   58.9350   -3.0520   -1.7322 C   0  0  0  0  0  0  0  0  0  0  0  0
   57.9752   -2.1754   -1.3395 C   0  0  0  0  0  0  0  0  0  0  0  0
   58.6409   -1.1005   -0.6686 C   0  0  0  0  0  0  0  0  0  0  0  0
   59.9833   -1.3248   -0.6608 N   0  0  0  0  0  0  0  0  0  0  0  0
   56.8894    2.2610    1.2661 H   0  0  0  0  0  0  0  0  0  0  0  0
   58.7710    3.9941    2.0742 H   0  0  0  0  0  0  0  0  0  0  0  0
   62.5793    3.9133    3.6543 H   0  0  0  0  0  0  0  0  0  0  0  0
   62.5689    6.1676    4.6827 H   0  0  0  0  0  0  0  0  0  0  0  0
   60.9104    8.9060    3.2001 H   0  0  0  0  0  0  0  0  0  0  0  0
   60.2196    7.6434    1.4201 H   0  0  0  0  0  0  0  0  0  0  0  0
   60.2378    5.3978    0.3880 H   0  0  0  0  0  0  0  0  0  0  0  0
   64.0468    4.2773    1.4764 H   0  0  0  0  0  0  0  0  0  0  0  0
   65.9399    2.5283    0.7332 H   0  0  0  0  0  0  0  0  0  0  0  0
   65.9408   -2.5593   -0.7185 H   0  0  0  0  0  0  0  0  0  0  0  0
   64.0589   -4.2860   -1.5396 H   0  0  0  0  0  0  0  0  0  0  0  0
   60.2396   -5.3840   -0.5610 H   0  0  0  0  0  0  0  0  0  0  0  0
   60.2459   -7.6304   -1.5924 H   0  0  0  0  0  0  0  0  0  0  0  0
   60.9770   -8.8929   -3.3551 H   0  0  0  0  0  0  0  0  0  0  0  0
   62.6528   -6.1503   -4.8108 H   0  0  0  0  0  0  0  0  0  0  0  0
   62.6426   -3.8963   -3.7807 H   0  0  0  0  0  0  0  0  0  0  0  0
   58.8059   -3.9676   -2.2864 H   0  0  0  0  0  0  0  0  0  0  0  0
   56.9112   -2.2365   -1.5025 H   0  0  0  0  0  0  0  0  0  0  0  0
   72.3321   -0.0165   -0.0023 Cu  0  0  0  0  0  0  0  0  0  0  0  0
   68.8944   -0.0146    0.0081 C   0  0  0  0  0  0  0  0  0  0  0  0
   69.5489    0.9793    0.7582 C   0  0  0  0  0  0  0  0  0  0  0  0
   68.8839    1.9341    1.5913 C   0  0  0  0  0  0  0  0  0  0  0  0
   69.8427    2.7408    2.1141 C   0  0  0  0  0  0  0  0  0  0  0  0
   71.1018    2.2840    1.6004 C   0  0  0  0  0  0  0  0  0  0  0  0
   70.8917    1.2002    0.7893 N   0  0  0  0  0  0  0  0  0  0  0  0
   72.3405    2.8593    1.8933 C   0  0  0  0  0  0  0  0  0  0  0  0
   72.3420    4.0989    2.7078 C   0  0  0  0  0  0  0  0  0  0  0  0
   73.0090    4.1453    3.9347 C   0  0  0  0  0  0  0  0  0  0  0  0
   73.0111    5.2994    4.6976 C   0  0  0  0  0  0  0  0  0  0  0  0
   72.3471    6.4345    4.2360 C   0  0  0  0  0  0  0  0  0  0  0  0
   72.3732    7.5518    5.0073 O   0  0  0  0  0  0  0  0  0  0  0  0
   71.6799    6.4045    3.0136 C   0  0  0  0  0  0  0  0  0  0  0  0
   71.6766    5.2410    2.2602 C   0  0  0  0  0  0  0  0  0  0  0  0
   73.5774    2.3568    1.4817 C   0  0  0  0  0  0  0  0  0  0  0  0
   74.8433    2.9875    1.7237 C   0  0  0  0  0  0  0  0  0  0  0  0
   75.7979    2.1776    1.1987 C   0  0  0  0  0  0  0  0  0  0  0  0
   73.7789    1.1884    0.7967 N   0  0  0  0  0  0  0  0  0  0  0  0
   75.1225    1.0560    0.6198 C   0  0  0  0  0  0  0  0  0  0  0  0
   75.7682   -0.0275    0.0002 C   0  0  0  0  0  0  0  0  0  0  0  0
   75.1171   -1.1042   -0.6252 C   0  0  0  0  0  0  0  0  0  0  0  0
   75.7867   -2.2238   -1.2148 C   0  0  0  0  0  0  0  0  0  0  0  0
   74.8282   -3.0207   -1.7526 C   0  0  0  0  0  0  0  0  0  0  0  0
   73.5658   -2.3858   -1.5039 C   0  0  0  0  0  0  0  0  0  0  0  0
   73.7731   -1.2263   -0.8059 N   0  0  0  0  0  0  0  0  0  0  0  0
   72.3262   -2.8797   -1.9169 C   0  0  0  0  0  0  0  0  0  0  0  0
   72.3212   -4.1083   -2.7483 C   0  0  0  0  0  0  0  0  0  0  0  0
   71.6667   -5.2592   -2.3075 C   0  0  0  0  0  0  0  0  0  0  0  0
   71.6613   -6.4109   -3.0787 C   0  0  0  0  0  0  0  0  0  0  0  0
   72.3080   -6.4194   -4.3125 C   0  0  0  0  0  0  0  0  0  0  0  0
   72.3236   -7.5245   -5.1018 O   0  0  0  0  0  0  0  0  0  0  0  0
   72.9615   -5.2755   -4.7670 C   0  0  0  0  0  0  0  0  0  0  0  0
   72.9690   -4.1335   -3.9859 C   0  0  0  0  0  0  0  0  0  0  0  0
   71.0899   -2.3069   -1.6101 C   0  0  0  0  0  0  0  0  0  0  0  0
   69.8269   -2.7620   -2.1154 C   0  0  0  0  0  0  0  0  0  0  0  0
   68.8721   -1.9592   -1.5797 C   0  0  0  0  0  0  0  0  0  0  0  0
   69.5436   -1.0078   -0.7477 C   0  0  0  0  0  0  0  0  0  0  0  0
   70.8860   -1.2280   -0.7908 N   0  0  0  0  0  0  0  0  0  0  0  0
   67.8204    1.9676    1.7639 H   0  0  0  0  0  0  0  0  0  0  0  0
   69.7131    3.5592    2.8037 H   0  0  0  0  0  0  0  0  0  0  0  0
   73.5146    3.2586    4.3006 H   0  0  0  0  0  0  0  0  0  0  0  0
   73.5214    5.3355    5.6522 H   0  0  0  0  0  0  0  0  0  0  0  0
   71.8805    8.2750    4.5966 H   0  0  0  0  0  0  0  0  0  0  0  0
   71.1676    7.2915    2.6563 H   0  0  0  0  0  0  0  0  0  0  0  0
   71.1672    5.2230    1.3030 H   0  0  0  0  0  0  0  0  0  0  0  0
   74.9812    3.9350    2.2190 H   0  0  0  0  0  0  0  0  0  0  0  0
   76.8660    2.3239    1.1957 H   0  0  0  0  0  0  0  0  0  0  0  0
   76.8539   -2.3770   -1.2105 H   0  0  0  0  0  0  0  0  0  0  0  0
   74.9605   -3.9621   -2.2610 H   0  0  0  0  0  0  0  0  0  0  0  0
   71.1727   -5.2572   -1.3421 H   0  0  0  0  0  0  0  0  0  0  0  0
   71.1577   -7.3050   -2.7270 H   0  0  0  0  0  0  0  0  0  0  0  0
   71.8387   -8.2547   -4.6943 H   0  0  0  0  0  0  0  0  0  0  0  0
   73.4557   -5.2949   -5.7305 H   0  0  0  0  0  0  0  0  0  0  0  0
   73.4669   -3.2398   -4.3454 H   0  0  0  0  0  0  0  0  0  0  0  0
   69.6918   -3.5775   -2.8074 H   0  0  0  0  0  0  0  0  0  0  0  0
   67.8073   -1.9931   -1.7430 H   0  0  0  0  0  0  0  0  0  0  0  0
  2  3  4  0  0  0  0
  3  4  1  0  0  0  0
  4  5  2  0  0  0  0
  5  6  4  0  0  0  0
  1  7  1  0  0  0  0
  3  7  4  0  0  0  0
  6  7  4  0  0  0  0
  6  8  4  0  0  0  0
  8  9  1  0  0  0  0
  9 10  4  0  0  0  0
 10 11  4  0  0  0  0
 11 12  4  0  0  0  0
 12 13  1  0  0  0  0
 12 14  4  0  0  0  0
  9 15  4  0  0  0  0
 14 15  4  0  0  0  0
  8 16  4  0  0  0  0
 16 17  4  0  0  0  0
 17 18  2  0  0  0  0
  1 19  1  0  0  0  0
 16 19  4  0  0  0  0
 18 20  4  0  0  0  0
 19 20  4  0  0  0  0
 20 21  4  0  0  0  0
 21 22  4  0  0  0  0
 22 23  4  0  0  0  0
 23 24  2  0  0  0  0
 24 25  4  0  0  0  0
  1 26  1  0  0  0  0
 22 26  4  0  0  0  0
 25 26  4  0  0  0  0
 25 27  4  0  0  0  0
 27 28  1  0  0  0  0
 28 29  4  0  0  0  0
 29 30  4  0  0  0  0
 30 31  4  0  0  0  0
 31 32  1  0  0  0  0
 31 33  4  0  0  0  0
 28 34  4  0  0  0  0
 33 34  4  0  0  0  0
 27 35  4  0  0  0  0
 35 36  4  0  0  0  0
 36 37  2  0  0  0  0
  2 38  4  0  0  0  0
 37 38  1  0  0  0  0
  1 39  1  0  0  0  0
 35 39  4  0  0  0  0
 38 39  4  0  0  0  0
  2 40  1  0  0  0  0
  4 41  1  0  0  0  0
  5 42  1  0  0  0  0
 10 43  1  0  0  0  0
 11 44  1  0  0  0  0
 13 45  1  0  0  0  0
 14 46  1  0  0  0  0
 15 47  1  0  0  0  0
 17 48  1  0  0  0  0
 18 49  1  0  0  0  0
 23 50  1  0  0  0  0
 24 51  1  0  0  0  0
 29 52  1  0  0  0  0
 30 53  1  0  0  0  0
 32 54  1  0  0  0  0
 33 55  1  0  0  0  0
 34 56  1  0  0  0  0
 36 57  1  0  0  0  0
 37 58  1  0  0  0  0
 60 61  4  0  0  0  0
 61 62  1  0  0  0  0
 62 63  2  0  0  0  0
 63 64  4  0  0  0  0
 59 65  1  0  0  0  0
 61 65  4  0  0  0  0
 64 65  4  0  0  0  0
 64 66  4  0  0  0  0
 66 67  1  0  0  0  0
 67 68  4  0  0  0  0
 68 69  4  0  0  0  0
 69 70  4  0  0  0  0
 70 71  1  0  0  0  0
 70 72  4  0  0  0  0
 67 73  4  0  0  0  0
 72 73  4  0  0  0  0
 66 74  4  0  0  0  0
 74 75  4  0  0  0  0
 75 76  2  0  0  0  0
 59 77  1  0  0  0  0
 74 77  4  0  0  0  0
 76 78  4  0  0  0  0
 77 78  4  0  0  0  0
 78 79  4  0  0  0  0
 79 80  4  0  0  0  0
 80 81  4  0  0  0  0
 81 82  2  0  0  0  0
 82 83  4  0  0  0  0
 59 84  1  0  0  0  0
 80 84  4  0  0  0  0
 83 84  4  0  0  0  0
 83 85  4  0  0  0  0
 85 86  1  0  0  0  0
 86 87  4  0  0  0  0
 87 88  4  0  0  0  0
 88 89  4  0  0  0  0
 89 90  1  0  0  0  0
 89 91  4  0  0  0  0
 86 92  4  0  0  0  0
 91 92  4  0  0  0  0
 85 93  4  0  0  0  0
 93 94  4  0  0  0  0
 94 95  2  0  0  0  0
 60 96  4  0  0  0  0
 95 96  1  0  0  0  0
 59 97  1  0  0  0  0
 93 97  4  0  0  0  0
 96 97  4  0  0  0  0
 60 98  1  0  0  0  0
 62 99  1  0  0  0  0
 63100  1  0  0  0  0
 68101  1  0  0  0  0
 69102  1  0  0  0  0
 71103  1  0  0  0  0
 72104  1  0  0  0  0
 73105  1  0  0  0  0
 75106  1  0  0  0  0
 76107  1  0  0  0  0
 81108  1  0  0  0  0
 82109  1  0  0  0  0
 87110  1  0  0  0  0
 88111  1  0  0  0  0
 90112  1  0  0  0  0
 91113  1  0  0  0  0
 92114  1  0  0  0  0
 94115  1  0  0  0  0
 95116  1  0  0  0  0
 21117  4  0  0  0  0
117118  3  0  0  0  0
119120  3  0  0  0  0
 79122  4  0  0  0  0
121122  3  0  0  0  0
118124  4  0  0  0  0
124125  4  0  0  0  0
125126  4  0  0  0  0
126127  2  0  0  0  0
127128  4  0  0  0  0
123129  1  0  0  0  0
125129  4  0  0  0  0
128129  4  0  0  0  0
128130  4  0  0  0  0
130131  1  0  0  0  0
131132  4  0  0  0  0
132133  4  0  0  0  0
133134  4  0  0  0  0
134135  1  0  0  0  0
134136  4  0  0  0  0
131137  4  0  0  0  0
136137  4  0  0  0  0
130138  4  0  0  0  0
138139  4  0  0  0  0
139140  2  0  0  0  0
123141  1  0  0  0  0
138141  4  0  0  0  0
140142  4  0  0  0  0
141142  4  0  0  0  0
119143  4  0  0  0  0
142143  4  0  0  0  0
143144  4  0  0  0  0
144145  4  0  0  0  0
145146  2  0  0  0  0
146147  4  0  0  0  0
123148  1  0  0  0  0
144148  4  0  0  0  0
147148  4  0  0  0  0
147149  4  0  0  0  0
149150  1  0  0  0  0
150151  4  0  0  0  0
151152  4  0  0  0  0
152153  4  0  0  0  0
153154  1  0  0  0  0
153155  4  0  0  0  0
150156  4  0  0  0  0
155156  4  0  0  0  0
149157  4  0  0  0  0
157158  4  0  0  0  0
158159  2  0  0  0  0
124160  4  0  0  0  0
159160  4  0  0  0  0
123161  1  0  0  0  0
157161  4  0  0  0  0
160161  4  0  0  0  0
126162  1  0  0  0  0
127163  1  0  0  0  0
132164  1  0  0  0  0
133165  1  0  0  0  0
135166  1  0  0  0  0
136167  1  0  0  0  0
137168  1  0  0  0  0
139169  1  0  0  0  0
140170  1  0  0  0  0
145171  1  0  0  0  0
146172  1  0  0  0  0
151173  1  0  0  0  0
152174  1  0  0  0  0
154175  1  0  0  0  0
155176  1  0  0  0  0
156177  1  0  0  0  0
158178  1  0  0  0  0
159179  1  0  0  0  0
120181  4  0  0  0  0
181182  4  0  0  0  0
182183  4  0  0  0  0
183184  2  0  0  0  0
184185  4  0  0  0  0
180186  1  0  0  0  0
182186  4  0  0  0  0
185186  4  0  0  0  0
185187  4  0  0  0  0
187188  1  0  0  0  0
188189  4  0  0  0  0
189190  4  0  0  0  0
190191  4  0  0  0  0
191192  1  0  0  0  0
191193  4  0  0  0  0
188194  4  0  0  0  0
193194  4  0  0  0  0
187195  4  0  0  0  0
195196  4  0  0  0  0
196197  2  0  0  0  0
180198  1  0  0  0  0
195198  4  0  0  0  0
197199  4  0  0  0  0
198199  4  0  0  0  0
121200  4  0  0  0  0
199200  4  0  0  0  0
200201  4  0  0  0  0
201202  4  0  0  0  0
202203  2  0  0  0  0
203204  4  0  0  0  0
180205  1  0  0  0  0
201205  4  0  0  0  0
204205  4  0  0  0  0
204206  4  0  0  0  0
206207  1  0  0  0  0
207208  4  0  0  0  0
208209  4  0  0  0  0
209210  4  0  0  0  0
210211  1  0  0  0  0
210212  4  0  0  0  0
207213  4  0  0  0  0
212213  4  0  0  0  0
206214  4  0  0  0  0
214215  4  0  0  0  0
215216  2  0  0  0  0
181217  4  0  0  0  0
216217  4  0  0  0  0
180218  1  0  0  0  0
214218  4  0  0  0  0
217218  4  0  0  0  0
183219  1  0  0  0  0
184220  1  0  0  0  0
189221  1  0  0  0  0
190222  1  0  0  0  0
192223  1  0  0  0  0
193224  1  0  0  0  0
194225  1  0  0  0  0
196226  1  0  0  0  0
197227  1  0  0  0  0
202228  1  0  0  0  0
203229  1  0  0  0  0
208230  1  0  0  0  0
209231  1  0  0  0  0
211232  1  0  0  0  0
212233  1  0  0  0  0
213234  1  0  0  0  0
215235  1  0  0  0  0
216236  1  0  0  0  0
M  END
