 xtb: 6.5.1 (b24c23e)
          07302202533D

238277  0     0  0            999 V2000
   29.4263   -0.0164   -0.0119 Ni  0  0  0  0  0  0  0  0  0  0  0  0
   26.0319   -0.0506   -0.0259 C   0  0  0  0  0  0  0  0  0  0  0  0
   26.6907   -1.2620   -0.0072 C   0  0  0  0  0  0  0  0  0  0  0  0
   26.0178   -2.5248    0.0155 C   0  0  0  0  0  0  0  0  0  0  0  0
   26.9769   -3.4736    0.1203 C   0  0  0  0  0  0  0  0  0  0  0  0
   28.2363   -2.7889    0.1552 C   0  0  0  0  0  0  0  0  0  0  0  0
   28.0509   -1.4323    0.0613 N   0  0  0  0  0  0  0  0  0  0  0  0
   29.4546   -3.4243    0.3542 C   0  0  0  0  0  0  0  0  0  0  0  0
   29.4667   -4.8986    0.5133 C   0  0  0  0  0  0  0  0  0  0  0  0
   29.8316   -5.4932    1.7199 C   0  0  0  0  0  0  0  0  0  0  0  0
   29.8240   -6.8757    1.8200 C   0  0  0  0  0  0  0  0  0  0  0  0
   29.4873   -7.6729    0.8114 N   0  0  0  0  0  0  0  0  0  0  0  0
   29.1406   -7.1133   -0.3431 C   0  0  0  0  0  0  0  0  0  0  0  0
   29.1124   -5.7413   -0.5389 C   0  0  0  0  0  0  0  0  0  0  0  0
   30.6609   -2.7406    0.4116 C   0  0  0  0  0  0  0  0  0  0  0  0
   31.9276   -3.3819    0.5953 C   0  0  0  0  0  0  0  0  0  0  0  0
   32.8725   -2.4169    0.4959 C   0  0  0  0  0  0  0  0  0  0  0  0
   30.8294   -1.3888    0.2111 N   0  0  0  0  0  0  0  0  0  0  0  0
   32.1823   -1.1918    0.2448 C   0  0  0  0  0  0  0  0  0  0  0  0
   32.8410    0.0157   -0.0027 C   0  0  0  0  0  0  0  0  0  0  0  0
   32.1601    1.2108   -0.2498 C   0  0  0  0  0  0  0  0  0  0  0  0
   32.8258    2.4430   -0.5303 C   0  0  0  0  0  0  0  0  0  0  0  0
   31.8630    3.3900   -0.6330 C   0  0  0  0  0  0  0  0  0  0  0  0
   30.6115    2.7332   -0.4057 C   0  0  0  0  0  0  0  0  0  0  0  0
   30.8043    1.3851   -0.2037 N   0  0  0  0  0  0  0  0  0  0  0  0
   29.3908    3.3933   -0.3703 C   0  0  0  0  0  0  0  0  0  0  0  0
   29.3767    4.8671   -0.5210 C   0  0  0  0  0  0  0  0  0  0  0  0
   28.7292    5.4799   -1.5930 C   0  0  0  0  0  0  0  0  0  0  0  0
   28.7444    6.8624   -1.6901 C   0  0  0  0  0  0  0  0  0  0  0  0
   29.3475    7.6444   -0.8005 N   0  0  0  0  0  0  0  0  0  0  0  0
   29.9654    7.0681    0.2254 C   0  0  0  0  0  0  0  0  0  0  0  0
   30.0097    5.6946    0.4056 C   0  0  0  0  0  0  0  0  0  0  0  0
   28.1823    2.7305   -0.2000 C   0  0  0  0  0  0  0  0  0  0  0  0
   26.9126    3.3920   -0.1222 C   0  0  0  0  0  0  0  0  0  0  0  0
   25.9714    2.4239   -0.0312 C   0  0  0  0  0  0  0  0  0  0  0  0
   26.6671    1.1733   -0.0413 C   0  0  0  0  0  0  0  0  0  0  0  0
   28.0235    1.3700   -0.1159 N   0  0  0  0  0  0  0  0  0  0  0  0
   24.9482   -0.0611   -0.0236 H   0  0  0  0  0  0  0  0  0  0  0  0
   24.9475   -2.6475   -0.0320 H   0  0  0  0  0  0  0  0  0  0  0  0
   26.8559   -4.5427    0.1839 H   0  0  0  0  0  0  0  0  0  0  0  0
   30.1040   -4.8816    2.5718 H   0  0  0  0  0  0  0  0  0  0  0  0
   30.1002   -7.3630    2.7506 H   0  0  0  0  0  0  0  0  0  0  0  0
   28.8733   -7.7911   -1.1485 H   0  0  0  0  0  0  0  0  0  0  0  0
   28.8323   -5.3287   -1.5008 H   0  0  0  0  0  0  0  0  0  0  0  0
   32.0663   -4.4373    0.7633 H   0  0  0  0  0  0  0  0  0  0  0  0
   33.9437   -2.5117    0.5717 H   0  0  0  0  0  0  0  0  0  0  0  0
   33.8933    2.5526   -0.6326 H   0  0  0  0  0  0  0  0  0  0  0  0
   31.9789    4.4395   -0.8485 H   0  0  0  0  0  0  0  0  0  0  0  0
   28.2338    4.8815   -2.3483 H   0  0  0  0  0  0  0  0  0  0  0  0
   28.2508    7.3627   -2.5181 H   0  0  0  0  0  0  0  0  0  0  0  0
   30.4469    7.7336    0.9360 H   0  0  0  0  0  0  0  0  0  0  0  0
   30.5164    5.2689    1.2635 H   0  0  0  0  0  0  0  0  0  0  0  0
   26.7735    4.4608   -0.1325 H   0  0  0  0  0  0  0  0  0  0  0  0
   24.9003    2.5264    0.0391 H   0  0  0  0  0  0  0  0  0  0  0  0
   85.1482    0.0260   -0.0190 Ni  0  0  0  0  0  0  0  0  0  0  0  0
   88.5434    0.0452   -0.0589 C   0  0  0  0  0  0  0  0  0  0  0  0
   87.8866    1.2140   -0.3814 C   0  0  0  0  0  0  0  0  0  0  0  0
   88.5623    2.4298   -0.7182 C   0  0  0  0  0  0  0  0  0  0  0  0
   87.6052    3.3713   -0.8871 C   0  0  0  0  0  0  0  0  0  0  0  0
   86.3444    2.7270   -0.6613 C   0  0  0  0  0  0  0  0  0  0  0  0
   86.5268    1.3998   -0.3632 N   0  0  0  0  0  0  0  0  0  0  0  0
   85.1263    3.3931   -0.6646 C   0  0  0  0  0  0  0  0  0  0  0  0
   85.1166    4.8503   -0.9390 C   0  0  0  0  0  0  0  0  0  0  0  0
   84.7429    5.7682    0.0411 C   0  0  0  0  0  0  0  0  0  0  0  0
   84.7532    7.1207   -0.2624 C   0  0  0  0  0  0  0  0  0  0  0  0
   85.1003    7.5925   -1.4553 N   0  0  0  0  0  0  0  0  0  0  0  0
   85.4551    6.7231   -2.3959 C   0  0  0  0  0  0  0  0  0  0  0  0
   85.4816    5.3531   -2.1867 C   0  0  0  0  0  0  0  0  0  0  0  0
   83.9175    2.7555   -0.4241 C   0  0  0  0  0  0  0  0  0  0  0  0
   82.6511    3.4225   -0.4535 C   0  0  0  0  0  0  0  0  0  0  0  0
   81.7042    2.4718   -0.2711 C   0  0  0  0  0  0  0  0  0  0  0  0
   83.7468    1.4051   -0.2160 N   0  0  0  0  0  0  0  0  0  0  0  0
   82.3931    1.2278   -0.1366 C   0  0  0  0  0  0  0  0  0  0  0  0
   81.7324    0.0035   -0.0024 C   0  0  0  0  0  0  0  0  0  0  0  0
   82.4110   -1.2106    0.1332 C   0  0  0  0  0  0  0  0  0  0  0  0
   81.7420   -2.4673    0.2469 C   0  0  0  0  0  0  0  0  0  0  0  0
   82.7031   -3.4038    0.4302 C   0  0  0  0  0  0  0  0  0  0  0  0
   83.9570   -2.7131    0.4362 C   0  0  0  0  0  0  0  0  0  0  0  0
   83.7669   -1.3664    0.2221 N   0  0  0  0  0  0  0  0  0  0  0  0
   85.1781   -3.3374    0.6512 C   0  0  0  0  0  0  0  0  0  0  0  0
   85.1901   -4.7900    0.9430 C   0  0  0  0  0  0  0  0  0  0  0  0
   85.8188   -5.6948    0.0886 C   0  0  0  0  0  0  0  0  0  0  0  0
   85.8018   -7.0445    0.4037 C   0  0  0  0  0  0  0  0  0  0  0  0
   85.2143   -7.5263    1.4941 N   0  0  0  0  0  0  0  0  0  0  0  0
   84.6145   -6.6700    2.3147 C   0  0  0  0  0  0  0  0  0  0  0  0
   84.5734   -5.3042    2.0828 C   0  0  0  0  0  0  0  0  0  0  0  0
   86.3889   -2.6592    0.6010 C   0  0  0  0  0  0  0  0  0  0  0  0
   87.6591   -3.2747    0.8533 C   0  0  0  0  0  0  0  0  0  0  0  0
   88.6018   -2.3260    0.6467 C   0  0  0  0  0  0  0  0  0  0  0  0
   87.9067   -1.1298    0.2812 C   0  0  0  0  0  0  0  0  0  0  0  0
   86.5494   -1.3343    0.2812 N   0  0  0  0  0  0  0  0  0  0  0  0
   89.6271    0.0524   -0.0663 H   0  0  0  0  0  0  0  0  0  0  0  0
   89.6328    2.5316   -0.7983 H   0  0  0  0  0  0  0  0  0  0  0  0
   87.7285    4.4142   -1.1298 H   0  0  0  0  0  0  0  0  0  0  0  0
   84.4615    5.4287    1.0308 H   0  0  0  0  0  0  0  0  0  0  0  0
   84.4706    7.8560    0.4853 H   0  0  0  0  0  0  0  0  0  0  0  0
   85.7307    7.1394   -3.3604 H   0  0  0  0  0  0  0  0  0  0  0  0
   85.7686    4.6802   -2.9859 H   0  0  0  0  0  0  0  0  0  0  0  0
   82.5144    4.4801   -0.6090 H   0  0  0  0  0  0  0  0  0  0  0  0
   80.6327    2.5850   -0.2379 H   0  0  0  0  0  0  0  0  0  0  0  0
   80.6736   -2.5995    0.1905 H   0  0  0  0  0  0  0  0  0  0  0  0
   82.5846   -4.4687    0.5452 H   0  0  0  0  0  0  0  0  0  0  0  0
   86.3009   -5.3481   -0.8176 H   0  0  0  0  0  0  0  0  0  0  0  0
   86.2809   -7.7692   -0.2482 H   0  0  0  0  0  0  0  0  0  0  0  0
   84.1454   -7.0940    3.1978 H   0  0  0  0  0  0  0  0  0  0  0  0
   84.0817   -4.6419    2.7853 H   0  0  0  0  0  0  0  0  0  0  0  0
   87.7974   -4.3004    1.1539 H   0  0  0  0  0  0  0  0  0  0  0  0
   89.6737   -2.4079    0.7315 H   0  0  0  0  0  0  0  0  0  0  0  0
   34.2460    0.0275   -0.0064 C   0  0  0  0  0  0  0  0  0  0  0  0
   35.4700    0.0366   -0.0100 C   0  0  0  0  0  0  0  0  0  0  0  0
   36.8132    0.0425   -0.0127 C   0  0  0  0  0  0  0  0  0  0  0  0
   38.0435    0.0455   -0.0138 C   0  0  0  0  0  0  0  0  0  0  0  0
   39.3818    0.0458   -0.0186 C   0  0  0  0  0  0  0  0  0  0  0  0
   40.6122    0.0437   -0.0222 C   0  0  0  0  0  0  0  0  0  0  0  0
   41.9551    0.0386   -0.0262 C   0  0  0  0  0  0  0  0  0  0  0  0
   43.1794    0.0320   -0.0312 C   0  0  0  0  0  0  0  0  0  0  0  0
   52.8212    0.0260   -0.0218 C   0  0  0  0  0  0  0  0  0  0  0  0
   54.0457    0.0272   -0.0155 C   0  0  0  0  0  0  0  0  0  0  0  0
   55.3883    0.0278   -0.0117 C   0  0  0  0  0  0  0  0  0  0  0  0
   56.6189    0.0276   -0.0101 C   0  0  0  0  0  0  0  0  0  0  0  0
   57.9568    0.0261   -0.0120 C   0  0  0  0  0  0  0  0  0  0  0  0
   59.1874    0.0213   -0.0141 C   0  0  0  0  0  0  0  0  0  0  0  0
   60.5300    0.0145   -0.0197 C   0  0  0  0  0  0  0  0  0  0  0  0
   61.7545    0.0135   -0.0215 C   0  0  0  0  0  0  0  0  0  0  0  0
   71.3941   -0.0064   -0.0277 C   0  0  0  0  0  0  0  0  0  0  0  0
   72.6186   -0.0074   -0.0205 C   0  0  0  0  0  0  0  0  0  0  0  0
   73.9615   -0.0087   -0.0210 C   0  0  0  0  0  0  0  0  0  0  0  0
   75.1919   -0.0124   -0.0157 C   0  0  0  0  0  0  0  0  0  0  0  0
   76.5301   -0.0140   -0.0113 C   0  0  0  0  0  0  0  0  0  0  0  0
   77.7604   -0.0137   -0.0086 C   0  0  0  0  0  0  0  0  0  0  0  0
   79.1035   -0.0104   -0.0060 C   0  0  0  0  0  0  0  0  0  0  0  0
   80.3276   -0.0062   -0.0052 C   0  0  0  0  0  0  0  0  0  0  0  0
   48.0005    0.0135   -0.0429 Ni  0  0  0  0  0  0  0  0  0  0  0  0
   44.5834    0.0250   -0.0363 C   0  0  0  0  0  0  0  0  0  0  0  0
   45.2556   -0.7403    0.9214 C   0  0  0  0  0  0  0  0  0  0  0  0
   44.5848   -1.4944    1.9314 C   0  0  0  0  0  0  0  0  0  0  0  0
   45.5388   -2.1944    2.5918 C   0  0  0  0  0  0  0  0  0  0  0  0
   46.7889   -1.8702    1.9756 C   0  0  0  0  0  0  0  0  0  0  0  0
   46.6070   -0.9436    0.9742 N   0  0  0  0  0  0  0  0  0  0  0  0
   47.9971   -2.4627    2.3177 C   0  0  0  0  0  0  0  0  0  0  0  0
   47.9951   -3.5354    3.3394 C   0  0  0  0  0  0  0  0  0  0  0  0
   47.3020   -4.7278    3.1354 C   0  0  0  0  0  0  0  0  0  0  0  0
   47.3323   -5.7030    4.1199 C   0  0  0  0  0  0  0  0  0  0  0  0
   47.9904   -5.5556    5.2651 N   0  0  0  0  0  0  0  0  0  0  0  0
   48.6508   -4.4203    5.4687 C   0  0  0  0  0  0  0  0  0  0  0  0
   48.6856   -3.3904    4.5419 C   0  0  0  0  0  0  0  0  0  0  0  0
   49.2069   -2.0911    1.7474 C   0  0  0  0  0  0  0  0  0  0  0  0
   50.4574   -2.7178    2.0496 C   0  0  0  0  0  0  0  0  0  0  0  0
   51.4139   -2.0172    1.3936 C   0  0  0  0  0  0  0  0  0  0  0  0
   49.3915   -1.0433    0.8737 N   0  0  0  0  0  0  0  0  0  0  0  0
   50.7441   -0.9736    0.6857 C   0  0  0  0  0  0  0  0  0  0  0  0
   51.4175    0.0220   -0.0290 C   0  0  0  0  0  0  0  0  0  0  0  0
   50.7449    1.0096   -0.7551 C   0  0  0  0  0  0  0  0  0  0  0  0
   51.4154    2.0495   -1.4679 C   0  0  0  0  0  0  0  0  0  0  0  0
   50.4615    2.7351   -2.1433 C   0  0  0  0  0  0  0  0  0  0  0  0
   49.2117    2.1050   -1.8454 C   0  0  0  0  0  0  0  0  0  0  0  0
   49.3938    1.0687   -0.9579 N   0  0  0  0  0  0  0  0  0  0  0  0
   48.0041    2.4682   -2.4262 C   0  0  0  0  0  0  0  0  0  0  0  0
   48.0077    3.5273   -3.4619 C   0  0  0  0  0  0  0  0  0  0  0  0
   48.7057    3.3657   -4.6580 C   0  0  0  0  0  0  0  0  0  0  0  0
   48.6780    4.3832   -5.5986 C   0  0  0  0  0  0  0  0  0  0  0  0
   48.0176    5.5218   -5.4143 N   0  0  0  0  0  0  0  0  0  0  0  0
   47.3524    5.6850   -4.2754 C   0  0  0  0  0  0  0  0  0  0  0  0
   47.3149    4.7232   -3.2781 C   0  0  0  0  0  0  0  0  0  0  0  0
   46.7939    1.8842   -2.0770 C   0  0  0  0  0  0  0  0  0  0  0  0
   45.5434    2.2105   -2.6914 C   0  0  0  0  0  0  0  0  0  0  0  0
   44.5868    1.5282   -2.0167 C   0  0  0  0  0  0  0  0  0  0  0  0
   45.2566    0.7797   -1.0018 C   0  0  0  0  0  0  0  0  0  0  0  0
   46.6093    0.9706   -1.0640 N   0  0  0  0  0  0  0  0  0  0  0  0
   43.5200   -1.4817    2.0993 H   0  0  0  0  0  0  0  0  0  0  0  0
   45.4173   -2.8686    3.4237 H   0  0  0  0  0  0  0  0  0  0  0  0
   46.7599   -4.8950    2.2123 H   0  0  0  0  0  0  0  0  0  0  0  0
   46.8049   -6.6423    3.9823 H   0  0  0  0  0  0  0  0  0  0  0  0
   49.1760   -4.3290    6.4149 H   0  0  0  0  0  0  0  0  0  0  0  0
   49.2291   -2.4775    4.7546 H   0  0  0  0  0  0  0  0  0  0  0  0
   50.5774   -3.5829    2.6809 H   0  0  0  0  0  0  0  0  0  0  0  0
   52.4796   -2.1791    1.3816 H   0  0  0  0  0  0  0  0  0  0  0  0
   52.4798    2.2185   -1.4467 H   0  0  0  0  0  0  0  0  0  0  0  0
   50.5827    3.5930   -2.7841 H   0  0  0  0  0  0  0  0  0  0  0  0
   49.2497    2.4496   -4.8549 H   0  0  0  0  0  0  0  0  0  0  0  0
   49.2095    4.2790   -6.5400 H   0  0  0  0  0  0  0  0  0  0  0  0
   46.8254    6.6268   -4.1536 H   0  0  0  0  0  0  0  0  0  0  0  0
   46.7678    4.9038   -2.3606 H   0  0  0  0  0  0  0  0  0  0  0  0
   45.4232    2.8750   -3.5314 H   0  0  0  0  0  0  0  0  0  0  0  0
   43.5211    1.5226   -2.1788 H   0  0  0  0  0  0  0  0  0  0  0  0
   66.5743   -0.0020   -0.0309 Ni  0  0  0  0  0  0  0  0  0  0  0  0
   63.1582    0.0080   -0.0254 C   0  0  0  0  0  0  0  0  0  0  0  0
   63.8307   -0.7475    0.9403 C   0  0  0  0  0  0  0  0  0  0  0  0
   63.1611   -1.4907    1.9592 C   0  0  0  0  0  0  0  0  0  0  0  0
   64.1154   -2.1866    2.6234 C   0  0  0  0  0  0  0  0  0  0  0  0
   65.3644   -1.8719    2.0001 C   0  0  0  0  0  0  0  0  0  0  0  0
   65.1816   -0.9527    0.9919 N   0  0  0  0  0  0  0  0  0  0  0  0
   66.5712   -2.4699    2.3371 C   0  0  0  0  0  0  0  0  0  0  0  0
   66.5707   -3.5380    3.3635 C   0  0  0  0  0  0  0  0  0  0  0  0
   65.8651   -4.7252    3.1724 C   0  0  0  0  0  0  0  0  0  0  0  0
   65.8983   -5.6966    4.1606 C   0  0  0  0  0  0  0  0  0  0  0  0
   66.5708   -5.5502    5.2976 N   0  0  0  0  0  0  0  0  0  0  0  0
   67.2431   -4.4199    5.4889 C   0  0  0  0  0  0  0  0  0  0  0  0
   67.2762   -3.3940    4.5574 C   0  0  0  0  0  0  0  0  0  0  0  0
   67.7791   -2.1096    1.7548 C   0  0  0  0  0  0  0  0  0  0  0  0
   69.0271   -2.7464    2.0454 C   0  0  0  0  0  0  0  0  0  0  0  0
   69.9833   -2.0533    1.3809 C   0  0  0  0  0  0  0  0  0  0  0  0
   67.9641   -1.0636    0.8794 N   0  0  0  0  0  0  0  0  0  0  0  0
   69.3157   -1.0034    0.6802 C   0  0  0  0  0  0  0  0  0  0  0  0
   69.9903   -0.0052   -0.0295 C   0  0  0  0  0  0  0  0  0  0  0  0
   69.3185    0.9932   -0.7416 C   0  0  0  0  0  0  0  0  0  0  0  0
   69.9887    2.0399   -1.4445 C   0  0  0  0  0  0  0  0  0  0  0  0
   69.0345    2.7322   -2.1129 C   0  0  0  0  0  0  0  0  0  0  0  0
   67.7850    2.0986   -1.8216 C   0  0  0  0  0  0  0  0  0  0  0  0
   67.9672    1.0551   -0.9428 N   0  0  0  0  0  0  0  0  0  0  0  0
   66.5779    2.4601   -2.4050 C   0  0  0  0  0  0  0  0  0  0  0  0
   66.5793    3.5253   -3.4343 C   0  0  0  0  0  0  0  0  0  0  0  0
   67.2840    3.3770   -4.6282 C   0  0  0  0  0  0  0  0  0  0  0  0
   67.2512    4.4000   -5.5628 C   0  0  0  0  0  0  0  0  0  0  0  0
   66.5801    5.5316   -5.3745 N   0  0  0  0  0  0  0  0  0  0  0  0
   65.9090    5.6823   -4.2373 C   0  0  0  0  0  0  0  0  0  0  0  0
   65.8756    4.7141   -3.2462 C   0  0  0  0  0  0  0  0  0  0  0  0
   65.3694    1.8675   -2.0644 C   0  0  0  0  0  0  0  0  0  0  0  0
   64.1205    2.1860   -2.6861 C   0  0  0  0  0  0  0  0  0  0  0  0
   63.1640    1.4993   -2.0156 C   0  0  0  0  0  0  0  0  0  0  0  0
   63.8322    0.7568   -0.9952 C   0  0  0  0  0  0  0  0  0  0  0  0
   65.1842    0.9534   -1.0520 N   0  0  0  0  0  0  0  0  0  0  0  0
   62.0968   -1.4739    2.1300 H   0  0  0  0  0  0  0  0  0  0  0  0
   63.9947   -2.8528    3.4619 H   0  0  0  0  0  0  0  0  0  0  0  0
   65.3115   -4.8918    2.2561 H   0  0  0  0  0  0  0  0  0  0  0  0
   65.3616   -6.6320    4.0328 H   0  0  0  0  0  0  0  0  0  0  0  0
   67.7800   -4.3293    6.4286 H   0  0  0  0  0  0  0  0  0  0  0  0
   67.8299   -2.4850    4.7601 H   0  0  0  0  0  0  0  0  0  0  0  0
   69.1460   -3.6126    2.6754 H   0  0  0  0  0  0  0  0  0  0  0  0
   71.0475   -2.2236    1.3594 H   0  0  0  0  0  0  0  0  0  0  0  0
   71.0532    2.2084   -1.4223 H   0  0  0  0  0  0  0  0  0  0  0  0
   69.1556    3.5960   -2.7457 H   0  0  0  0  0  0  0  0  0  0  0  0
   67.8365    2.4668   -4.8286 H   0  0  0  0  0  0  0  0  0  0  0  0
   67.7871    4.3059   -6.5027 H   0  0  0  0  0  0  0  0  0  0  0  0
   65.3732    6.6187   -4.1121 H   0  0  0  0  0  0  0  0  0  0  0  0
   65.3229    4.8841   -2.3299 H   0  0  0  0  0  0  0  0  0  0  0  0
   64.0013    2.8484   -3.5278 H   0  0  0  0  0  0  0  0  0  0  0  0
   62.0992    1.4878   -2.1834 H   0  0  0  0  0  0  0  0  0  0  0  0
  2  3  4  0  0  0  0
  3  4  4  0  0  0  0
  4  5  2  0  0  0  0
  5  6  4  0  0  0  0
  1  7  1  0  0  0  0
  3  7  4  0  0  0  0
  6  7  4  0  0  0  0
  6  8  4  0  0  0  0
  8  9  1  0  0  0  0
  9 10  4  0  0  0  0
 10 11  4  0  0  0  0
 11 12  4  0  0  0  0
 12 13  4  0  0  0  0
  9 14  4  0  0  0  0
 13 14  4  0  0  0  0
  8 15  4  0  0  0  0
 15 16  4  0  0  0  0
 16 17  2  0  0  0  0
  1 18  1  0  0  0  0
 15 18  4  0  0  0  0
 17 19  4  0  0  0  0
 18 19  4  0  0  0  0
 19 20  4  0  0  0  0
 20 21  4  0  0  0  0
 21 22  4  0  0  0  0
 22 23  2  0  0  0  0
 23 24  4  0  0  0  0
  1 25  1  0  0  0  0
 21 25  4  0  0  0  0
 24 25  4  0  0  0  0
 24 26  4  0  0  0  0
 26 27  1  0  0  0  0
 27 28  4  0  0  0  0
 28 29  4  0  0  0  0
 29 30  4  0  0  0  0
 30 31  4  0  0  0  0
 27 32  4  0  0  0  0
 31 32  4  0  0  0  0
 26 33  4  0  0  0  0
 33 34  4  0  0  0  0
 34 35  2  0  0  0  0
  2 36  4  0  0  0  0
 35 36  4  0  0  0  0
  1 37  1  0  0  0  0
 33 37  4  0  0  0  0
 36 37  4  0  0  0  0
  2 38  1  0  0  0  0
  4 39  1  0  0  0  0
  5 40  1  0  0  0  0
 10 41  1  0  0  0  0
 11 42  1  0  0  0  0
 13 43  1  0  0  0  0
 14 44  1  0  0  0  0
 16 45  1  0  0  0  0
 17 46  1  0  0  0  0
 22 47  1  0  0  0  0
 23 48  1  0  0  0  0
 28 49  1  0  0  0  0
 29 50  1  0  0  0  0
 31 51  1  0  0  0  0
 32 52  1  0  0  0  0
 34 53  1  0  0  0  0
 35 54  1  0  0  0  0
 56 57  4  0  0  0  0
 57 58  4  0  0  0  0
 58 59  2  0  0  0  0
 59 60  4  0  0  0  0
 55 61  1  0  0  0  0
 57 61  4  0  0  0  0
 60 61  4  0  0  0  0
 60 62  4  0  0  0  0
 62 63  1  0  0  0  0
 63 64  4  0  0  0  0
 64 65  4  0  0  0  0
 65 66  4  0  0  0  0
 66 67  4  0  0  0  0
 63 68  4  0  0  0  0
 67 68  4  0  0  0  0
 62 69  4  0  0  0  0
 69 70  4  0  0  0  0
 70 71  2  0  0  0  0
 55 72  1  0  0  0  0
 69 72  4  0  0  0  0
 71 73  4  0  0  0  0
 72 73  4  0  0  0  0
 73 74  4  0  0  0  0
 74 75  4  0  0  0  0
 75 76  4  0  0  0  0
 76 77  2  0  0  0  0
 77 78  4  0  0  0  0
 55 79  1  0  0  0  0
 75 79  4  0  0  0  0
 78 79  4  0  0  0  0
 78 80  4  0  0  0  0
 80 81  1  0  0  0  0
 81 82  4  0  0  0  0
 82 83  4  0  0  0  0
 83 84  4  0  0  0  0
 84 85  4  0  0  0  0
 81 86  4  0  0  0  0
 85 86  4  0  0  0  0
 80 87  4  0  0  0  0
 87 88  4  0  0  0  0
 88 89  2  0  0  0  0
 56 90  4  0  0  0  0
 89 90  4  0  0  0  0
 55 91  1  0  0  0  0
 87 91  4  0  0  0  0
 90 91  4  0  0  0  0
 56 92  1  0  0  0  0
 58 93  1  0  0  0  0
 59 94  1  0  0  0  0
 64 95  1  0  0  0  0
 65 96  1  0  0  0  0
 67 97  1  0  0  0  0
 68 98  1  0  0  0  0
 70 99  1  0  0  0  0
 71100  1  0  0  0  0
 76101  1  0  0  0  0
 77102  1  0  0  0  0
 82103  1  0  0  0  0
 83104  1  0  0  0  0
 85105  1  0  0  0  0
 86106  1  0  0  0  0
 88107  1  0  0  0  0
 89108  1  0  0  0  0
 20109  4  0  0  0  0
109110  3  0  0  0  0
110111  4  0  0  0  0
111112  3  0  0  0  0
112113  4  0  0  0  0
113114  3  0  0  0  0
114115  4  0  0  0  0
115116  3  0  0  0  0
117118  3  0  0  0  0
118119  4  0  0  0  0
119120  3  0  0  0  0
120121  4  0  0  0  0
121122  3  0  0  0  0
122123  4  0  0  0  0
123124  3  0  0  0  0
125126  3  0  0  0  0
126127  4  0  0  0  0
127128  3  0  0  0  0
128129  4  0  0  0  0
129130  3  0  0  0  0
130131  4  0  0  0  0
 74132  4  0  0  0  0
131132  3  0  0  0  0
116134  4  0  0  0  0
134135  4  0  0  0  0
135136  4  0  0  0  0
136137  2  0  0  0  0
137138  4  0  0  0  0
133139  1  0  0  0  0
135139  4  0  0  0  0
138139  4  0  0  0  0
138140  4  0  0  0  0
140141  1  0  0  0  0
141142  4  0  0  0  0
142143  4  0  0  0  0
143144  4  0  0  0  0
144145  4  0  0  0  0
141146  4  0  0  0  0
145146  4  0  0  0  0
140147  4  0  0  0  0
147148  4  0  0  0  0
148149  2  0  0  0  0
133150  1  0  0  0  0
147150  4  0  0  0  0
149151  4  0  0  0  0
150151  4  0  0  0  0
117152  4  0  0  0  0
151152  4  0  0  0  0
152153  4  0  0  0  0
153154  4  0  0  0  0
154155  2  0  0  0  0
155156  4  0  0  0  0
133157  1  0  0  0  0
153157  4  0  0  0  0
156157  4  0  0  0  0
156158  4  0  0  0  0
158159  1  0  0  0  0
159160  4  0  0  0  0
160161  4  0  0  0  0
161162  4  0  0  0  0
162163  4  0  0  0  0
159164  4  0  0  0  0
163164  4  0  0  0  0
158165  4  0  0  0  0
165166  4  0  0  0  0
166167  2  0  0  0  0
134168  4  0  0  0  0
167168  4  0  0  0  0
133169  1  0  0  0  0
165169  4  0  0  0  0
168169  4  0  0  0  0
136170  1  0  0  0  0
137171  1  0  0  0  0
142172  1  0  0  0  0
143173  1  0  0  0  0
145174  1  0  0  0  0
146175  1  0  0  0  0
148176  1  0  0  0  0
149177  1  0  0  0  0
154178  1  0  0  0  0
155179  1  0  0  0  0
160180  1  0  0  0  0
161181  1  0  0  0  0
163182  1  0  0  0  0
164183  1  0  0  0  0
166184  1  0  0  0  0
167185  1  0  0  0  0
124187  4  0  0  0  0
187188  4  0  0  0  0
188189  4  0  0  0  0
189190  2  0  0  0  0
190191  4  0  0  0  0
186192  1  0  0  0  0
188192  4  0  0  0  0
191192  4  0  0  0  0
191193  4  0  0  0  0
193194  1  0  0  0  0
194195  4  0  0  0  0
195196  4  0  0  0  0
196197  4  0  0  0  0
197198  4  0  0  0  0
194199  4  0  0  0  0
198199  4  0  0  0  0
193200  4  0  0  0  0
200201  4  0  0  0  0
201202  2  0  0  0  0
186203  1  0  0  0  0
200203  4  0  0  0  0
202204  4  0  0  0  0
203204  4  0  0  0  0
125205  4  0  0  0  0
204205  4  0  0  0  0
205206  4  0  0  0  0
206207  4  0  0  0  0
207208  2  0  0  0  0
208209  4  0  0  0  0
186210  1  0  0  0  0
206210  4  0  0  0  0
209210  4  0  0  0  0
209211  4  0  0  0  0
211212  1  0  0  0  0
212213  4  0  0  0  0
213214  4  0  0  0  0
214215  4  0  0  0  0
215216  4  0  0  0  0
212217  4  0  0  0  0
216217  4  0  0  0  0
211218  4  0  0  0  0
218219  4  0  0  0  0
219220  2  0  0  0  0
187221  4  0  0  0  0
220221  4  0  0  0  0
186222  1  0  0  0  0
218222  4  0  0  0  0
221222  4  0  0  0  0
189223  1  0  0  0  0
190224  1  0  0  0  0
195225  1  0  0  0  0
196226  1  0  0  0  0
198227  1  0  0  0  0
199228  1  0  0  0  0
201229  1  0  0  0  0
202230  1  0  0  0  0
207231  1  0  0  0  0
208232  1  0  0  0  0
213233  1  0  0  0  0
214234  1  0  0  0  0
216235  1  0  0  0  0
217236  1  0  0  0  0
219237  1  0  0  0  0
220238  1  0  0  0  0
M  END
