 xtb: 6.5.1 (b24c23e)
          07302205063D

126149  0     0  0            999 V2000
   14.6667   -0.0282   -0.0201 Ni  0  0  0  0  0  0  0  0  0  0  0  0
   11.2773   -0.0406   -0.1712 C   0  0  0  0  0  0  0  0  0  0  0  0
   11.9320   -1.2535   -0.2162 C   0  0  0  0  0  0  0  0  0  0  0  0
   11.2580   -2.5139   -0.2899 C   0  0  0  0  0  0  0  0  0  0  0  0
   12.2177   -3.4608   -0.4065 C   0  0  0  0  0  0  0  0  0  0  0  0
   13.4773   -2.7752   -0.4189 C   0  0  0  0  0  0  0  0  0  0  0  0
   13.2933   -1.4247   -0.2624 N   0  0  0  0  0  0  0  0  0  0  0  0
   14.7013   -3.4039   -0.6097 C   0  0  0  0  0  0  0  0  0  0  0  0
   14.7189   -4.8616   -0.8689 C   0  0  0  0  0  0  0  0  0  0  0  0
   15.3802   -5.7274    0.0075 C   0  0  0  0  0  0  0  0  0  0  0  0
   15.4010   -7.0892   -0.2326 C   0  0  0  0  0  0  0  0  0  0  0  0
   14.7591   -7.5892   -1.3621 C   0  0  0  0  0  0  0  0  0  0  0  0
   14.7819   -9.0181   -1.6218 N   0  0  0  0  0  0  0  0  0  0  0  0
   14.2053   -9.4158   -2.6014 O   0  0  0  0  0  0  0  0  0  0  0  0
   15.3753   -9.7172   -0.8412 O   0  0  0  0  0  0  0  0  0  0  0  0
   14.0966   -6.7442   -2.2478 C   0  0  0  0  0  0  0  0  0  0  0  0
   14.0774   -5.3845   -1.9958 C   0  0  0  0  0  0  0  0  0  0  0  0
   15.9108   -2.7212   -0.5787 C   0  0  0  0  0  0  0  0  0  0  0  0
   17.1781   -3.3334   -0.8409 C   0  0  0  0  0  0  0  0  0  0  0  0
   18.1199   -2.3790   -0.6494 C   0  0  0  0  0  0  0  0  0  0  0  0
   16.0730   -1.3905   -0.2689 N   0  0  0  0  0  0  0  0  0  0  0  0
   17.4258   -1.1871   -0.2790 C   0  0  0  0  0  0  0  0  0  0  0  0
   18.0775   -0.0083    0.0929 C   0  0  0  0  0  0  0  0  0  0  0  0
   17.3892    1.1596    0.4316 C   0  0  0  0  0  0  0  0  0  0  0  0
   18.0430    2.3550    0.8596 C   0  0  0  0  0  0  0  0  0  0  0  0
   17.0783    3.2948    1.0046 C   0  0  0  0  0  0  0  0  0  0  0  0
   15.8385    2.6713    0.6521 C   0  0  0  0  0  0  0  0  0  0  0  0
   16.0373    1.3464    0.3380 N   0  0  0  0  0  0  0  0  0  0  0  0
   14.6231    3.3417    0.6006 C   0  0  0  0  0  0  0  0  0  0  0  0
   14.6033    4.7976    0.8714 C   0  0  0  0  0  0  0  0  0  0  0  0
   13.8732    5.3038    1.9508 C   0  0  0  0  0  0  0  0  0  0  0  0
   13.8495    6.6625    2.2078 C   0  0  0  0  0  0  0  0  0  0  0  0
   14.5577    7.5233    1.3741 C   0  0  0  0  0  0  0  0  0  0  0  0
   14.5313    8.9518    1.6358 N   0  0  0  0  0  0  0  0  0  0  0  0
   13.8800    9.3347    2.5737 O   0  0  0  0  0  0  0  0  0  0  0  0
   15.1619    9.6653    0.8988 O   0  0  0  0  0  0  0  0  0  0  0  0
   15.2895    7.0396    0.2934 C   0  0  0  0  0  0  0  0  0  0  0  0
   15.3115    5.6786    0.0487 C   0  0  0  0  0  0  0  0  0  0  0  0
   13.4245    2.7056    0.3022 C   0  0  0  0  0  0  0  0  0  0  0  0
   12.1655    3.3826    0.1858 C   0  0  0  0  0  0  0  0  0  0  0  0
   11.2284    2.4313   -0.0332 C   0  0  0  0  0  0  0  0  0  0  0  0
   11.9162    1.1765   -0.0602 C   0  0  0  0  0  0  0  0  0  0  0  0
   13.2661    1.3563    0.1130 N   0  0  0  0  0  0  0  0  0  0  0  0
   10.1948   -0.0443   -0.2222 H   0  0  0  0  0  0  0  0  0  0  0  0
   10.1876   -2.6376   -0.2537 H   0  0  0  0  0  0  0  0  0  0  0  0
   12.0968   -4.5296   -0.4743 H   0  0  0  0  0  0  0  0  0  0  0  0
   15.8672   -5.3263    0.8887 H   0  0  0  0  0  0  0  0  0  0  0  0
   15.9063   -7.7690    0.4430 H   0  0  0  0  0  0  0  0  0  0  0  0
   13.6083   -7.1582   -3.1218 H   0  0  0  0  0  0  0  0  0  0  0  0
   13.5761   -4.7142   -2.6842 H   0  0  0  0  0  0  0  0  0  0  0  0
   17.3196   -4.3590   -1.1399 H   0  0  0  0  0  0  0  0  0  0  0  0
   19.1904   -2.4604   -0.7451 H   0  0  0  0  0  0  0  0  0  0  0  0
   19.1043    2.4469    1.0245 H   0  0  0  0  0  0  0  0  0  0  0  0
   17.1863    4.3178    1.3258 H   0  0  0  0  0  0  0  0  0  0  0  0
   13.3345    4.6217    2.5982 H   0  0  0  0  0  0  0  0  0  0  0  0
   13.2916    7.0640    3.0452 H   0  0  0  0  0  0  0  0  0  0  0  0
   15.8289    7.7313   -0.3425 H   0  0  0  0  0  0  0  0  0  0  0  0
   15.8680    5.2903   -0.7963 H   0  0  0  0  0  0  0  0  0  0  0  0
   12.0301    4.4494    0.2585 H   0  0  0  0  0  0  0  0  0  0  0  0
   10.1648    2.5482   -0.1659 H   0  0  0  0  0  0  0  0  0  0  0  0
   30.6609    0.0335   -0.0096 Ni  0  0  0  0  0  0  0  0  0  0  0  0
   34.0503    0.1021   -0.1481 C   0  0  0  0  0  0  0  0  0  0  0  0
   33.3957    1.2427    0.2675 C   0  0  0  0  0  0  0  0  0  0  0  0
   34.0698    2.4383    0.6730 C   0  0  0  0  0  0  0  0  0  0  0  0
   33.1101    3.3595    0.9211 C   0  0  0  0  0  0  0  0  0  0  0  0
   31.8505    2.7287    0.6525 C   0  0  0  0  0  0  0  0  0  0  0  0
   32.0345    1.4185    0.2897 N   0  0  0  0  0  0  0  0  0  0  0  0
   30.6265    3.3831    0.7119 C   0  0  0  0  0  0  0  0  0  0  0  0
   30.6092    4.8316    1.0189 C   0  0  0  0  0  0  0  0  0  0  0  0
   29.9519    5.3046    2.1586 C   0  0  0  0  0  0  0  0  0  0  0  0
   29.9314    6.6570    2.4472 C   0  0  0  0  0  0  0  0  0  0  0  0
   30.5691    7.5448    1.5854 C   0  0  0  0  0  0  0  0  0  0  0  0
   30.5462    8.9668    1.8808 N   0  0  0  0  0  0  0  0  0  0  0  0
   31.1189    9.7035    1.1196 O   0  0  0  0  0  0  0  0  0  0  0  0
   29.9567    9.3213    2.8693 O   0  0  0  0  0  0  0  0  0  0  0  0
   31.2274    7.0944    0.4446 C   0  0  0  0  0  0  0  0  0  0  0  0
   31.2468    5.7396    0.1681 C   0  0  0  0  0  0  0  0  0  0  0  0
   29.4170    2.7389    0.4849 C   0  0  0  0  0  0  0  0  0  0  0  0
   28.1497    3.4048    0.4729 C   0  0  0  0  0  0  0  0  0  0  0  0
   27.2078    2.4483    0.2925 C   0  0  0  0  0  0  0  0  0  0  0  0
   29.2546    1.3892    0.2726 N   0  0  0  0  0  0  0  0  0  0  0  0
   27.9018    1.2045    0.1876 C   0  0  0  0  0  0  0  0  0  0  0  0
   27.2501   -0.0278    0.0903 C   0  0  0  0  0  0  0  0  0  0  0  0
   27.9386   -1.2373   -0.0335 C   0  0  0  0  0  0  0  0  0  0  0  0
   27.2851   -2.5062   -0.0838 C   0  0  0  0  0  0  0  0  0  0  0  0
   28.2498   -3.4317   -0.3019 C   0  0  0  0  0  0  0  0  0  0  0  0
   29.4894   -2.7213   -0.3965 C   0  0  0  0  0  0  0  0  0  0  0  0
   29.2904   -1.3752   -0.1914 N   0  0  0  0  0  0  0  0  0  0  0  0
   30.7046   -3.3232   -0.6969 C   0  0  0  0  0  0  0  0  0  0  0  0
   30.7245   -4.7747   -0.9904 C   0  0  0  0  0  0  0  0  0  0  0  0
   31.4554   -5.6476   -0.1789 C   0  0  0  0  0  0  0  0  0  0  0  0
   31.4793   -7.0038   -0.4485 C   0  0  0  0  0  0  0  0  0  0  0  0
   30.7709   -7.4906   -1.5434 C   0  0  0  0  0  0  0  0  0  0  0  0
   30.7978   -8.9133   -1.8349 N   0  0  0  0  0  0  0  0  0  0  0  0
   31.4481   -9.6192   -1.1075 O   0  0  0  0  0  0  0  0  0  0  0  0
   30.1677   -9.2996   -2.7856 O   0  0  0  0  0  0  0  0  0  0  0  0
   30.0384   -6.6382   -2.3646 C   0  0  0  0  0  0  0  0  0  0  0  0
   30.0160   -5.2844   -2.0825 C   0  0  0  0  0  0  0  0  0  0  0  0
   31.9029   -2.6214   -0.7371 C   0  0  0  0  0  0  0  0  0  0  0  0
   33.1614   -3.2049   -1.1010 C   0  0  0  0  0  0  0  0  0  0  0  0
   34.0985   -2.2405   -0.9491 C   0  0  0  0  0  0  0  0  0  0  0  0
   33.4111   -1.0674   -0.5021 C   0  0  0  0  0  0  0  0  0  0  0  0
   32.0614   -1.2995   -0.4069 N   0  0  0  0  0  0  0  0  0  0  0  0
   35.1326    0.1249   -0.1952 H   0  0  0  0  0  0  0  0  0  0  0  0
   35.1402    2.5393    0.7528 H   0  0  0  0  0  0  0  0  0  0  0  0
   33.2308    4.3756    1.2599 H   0  0  0  0  0  0  0  0  0  0  0  0
   29.4680    4.6018    2.8266 H   0  0  0  0  0  0  0  0  0  0  0  0
   29.4295    7.0332    3.3306 H   0  0  0  0  0  0  0  0  0  0  0  0
   31.7124    7.8066   -0.2122 H   0  0  0  0  0  0  0  0  0  0  0  0
   31.7451    5.3769   -0.7234 H   0  0  0  0  0  0  0  0  0  0  0  0
   28.0083    4.4676    0.5813 H   0  0  0  0  0  0  0  0  0  0  0  0
   26.1372    2.5597    0.2353 H   0  0  0  0  0  0  0  0  0  0  0  0
   26.2240   -2.6534    0.0358 H   0  0  0  0  0  0  0  0  0  0  0  0
   28.1421   -4.5006   -0.3871 H   0  0  0  0  0  0  0  0  0  0  0  0
   31.9943   -5.2568    0.6762 H   0  0  0  0  0  0  0  0  0  0  0  0
   32.0376   -7.6891    0.1778 H   0  0  0  0  0  0  0  0  0  0  0  0
   29.4988   -7.0421   -3.2128 H   0  0  0  0  0  0  0  0  0  0  0  0
   29.4589   -4.6085   -2.7208 H   0  0  0  0  0  0  0  0  0  0  0  0
   33.2966   -4.2211   -1.4339 H   0  0  0  0  0  0  0  0  0  0  0  0
   35.1618   -2.2988   -1.1179 H   0  0  0  0  0  0  0  0  0  0  0  0
   23.2776   -0.0373    0.1472 C   0  0  0  0  0  0  0  0  0  0  0  0
   22.0501   -0.0212    0.1509 C   0  0  0  0  0  0  0  0  0  0  0  0
   20.7052   -0.0115    0.1422 C   0  0  0  0  0  0  0  0  0  0  0  0
   19.4822   -0.0008    0.1256 C   0  0  0  0  0  0  0  0  0  0  0  0
   24.6224   -0.0430    0.1351 C   0  0  0  0  0  0  0  0  0  0  0  0
   25.8454   -0.0472    0.1175 C   0  0  0  0  0  0  0  0  0  0  0  0
  2  3  4  0  0  0  0
  3  4  4  0  0  0  0
  4  5  2  0  0  0  0
  5  6  4  0  0  0  0
  1  7  1  0  0  0  0
  3  7  4  0  0  0  0
  6  7  4  0  0  0  0
  6  8  4  0  0  0  0
  8  9  1  0  0  0  0
  9 10  4  0  0  0  0
 10 11  4  0  0  0  0
 11 12  4  0  0  0  0
 12 13  1  0  0  0  0
 13 14  2  0  0  0  0
 13 15  2  0  0  0  0
 14 15  1  0  0  0  0
 12 16  4  0  0  0  0
  9 17  4  0  0  0  0
 16 17  4  0  0  0  0
  8 18  4  0  0  0  0
 18 19  4  0  0  0  0
 19 20  2  0  0  0  0
  1 21  1  0  0  0  0
 18 21  4  0  0  0  0
 20 22  4  0  0  0  0
 21 22  4  0  0  0  0
 22 23  4  0  0  0  0
 23 24  4  0  0  0  0
 24 25  4  0  0  0  0
 25 26  2  0  0  0  0
 26 27  4  0  0  0  0
  1 28  1  0  0  0  0
 24 28  4  0  0  0  0
 27 28  4  0  0  0  0
 27 29  4  0  0  0  0
 29 30  1  0  0  0  0
 30 31  4  0  0  0  0
 31 32  4  0  0  0  0
 32 33  4  0  0  0  0
 33 34  1  0  0  0  0
 34 35  2  0  0  0  0
 34 36  2  0  0  0  0
 35 36  1  0  0  0  0
 33 37  4  0  0  0  0
 30 38  4  0  0  0  0
 37 38  4  0  0  0  0
 29 39  4  0  0  0  0
 39 40  4  0  0  0  0
 40 41  2  0  0  0  0
  2 42  4  0  0  0  0
 41 42  4  0  0  0  0
  1 43  1  0  0  0  0
 39 43  4  0  0  0  0
 42 43  4  0  0  0  0
  2 44  1  0  0  0  0
  4 45  1  0  0  0  0
  5 46  1  0  0  0  0
 10 47  1  0  0  0  0
 11 48  1  0  0  0  0
 16 49  1  0  0  0  0
 17 50  1  0  0  0  0
 19 51  1  0  0  0  0
 20 52  1  0  0  0  0
 25 53  1  0  0  0  0
 26 54  1  0  0  0  0
 31 55  1  0  0  0  0
 32 56  1  0  0  0  0
 37 57  1  0  0  0  0
 38 58  1  0  0  0  0
 40 59  1  0  0  0  0
 41 60  1  0  0  0  0
 62 63  4  0  0  0  0
 63 64  4  0  0  0  0
 64 65  2  0  0  0  0
 65 66  4  0  0  0  0
 61 67  1  0  0  0  0
 63 67  4  0  0  0  0
 66 67  4  0  0  0  0
 66 68  4  0  0  0  0
 68 69  1  0  0  0  0
 69 70  4  0  0  0  0
 70 71  4  0  0  0  0
 71 72  4  0  0  0  0
 72 73  1  0  0  0  0
 73 74  2  0  0  0  0
 73 75  2  0  0  0  0
 74 75  1  0  0  0  0
 72 76  4  0  0  0  0
 69 77  4  0  0  0  0
 76 77  4  0  0  0  0
 68 78  4  0  0  0  0
 78 79  4  0  0  0  0
 79 80  2  0  0  0  0
 61 81  1  0  0  0  0
 78 81  4  0  0  0  0
 80 82  4  0  0  0  0
 81 82  4  0  0  0  0
 82 83  4  0  0  0  0
 83 84  4  0  0  0  0
 84 85  4  0  0  0  0
 85 86  2  0  0  0  0
 86 87  4  0  0  0  0
 61 88  1  0  0  0  0
 84 88  4  0  0  0  0
 87 88  4  0  0  0  0
 87 89  4  0  0  0  0
 89 90  1  0  0  0  0
 90 91  4  0  0  0  0
 91 92  4  0  0  0  0
 92 93  4  0  0  0  0
 93 94  1  0  0  0  0
 94 95  2  0  0  0  0
 94 96  2  0  0  0  0
 95 96  1  0  0  0  0
 93 97  4  0  0  0  0
 90 98  4  0  0  0  0
 97 98  4  0  0  0  0
 89 99  4  0  0  0  0
 99100  4  0  0  0  0
100101  2  0  0  0  0
 62102  4  0  0  0  0
101102  4  0  0  0  0
 61103  1  0  0  0  0
 99103  4  0  0  0  0
102103  4  0  0  0  0
 62104  1  0  0  0  0
 64105  1  0  0  0  0
 65106  1  0  0  0  0
 70107  1  0  0  0  0
 71108  1  0  0  0  0
 76109  1  0  0  0  0
 77110  1  0  0  0  0
 79111  1  0  0  0  0
 80112  1  0  0  0  0
 85113  1  0  0  0  0
 86114  1  0  0  0  0
 91115  1  0  0  0  0
 92116  1  0  0  0  0
 97117  1  0  0  0  0
 98118  1  0  0  0  0
100119  1  0  0  0  0
101120  1  0  0  0  0
121122  3  0  0  0  0
122123  4  0  0  0  0
 23124  4  0  0  0  0
123124  3  0  0  0  0
121125  4  0  0  0  0
 83126  4  0  0  0  0
125126  3  0  0  0  0
M  END
