420

C 90.251389 -0.028148 0.078279
C 90.985264 1.194910 0.709441
C 90.391194 2.215415 1.416462
C 91.416279 3.137037 1.755746
C 92.600697 2.652191 1.234831
N 92.333486 1.439639 0.649666
C 94.020839 3.357115 1.272526
C 94.012573 4.791744 1.593095
C 93.702995 5.683690 0.627484
C 93.634064 7.164637 0.833567
N 94.080861 7.553850 2.169179
C 94.319512 6.623903 3.154356
C 94.313364 5.305401 2.923971
C 95.146839 2.657718 0.969013
C 96.446257 3.295499 0.939570
C 97.349095 2.388843 0.583863
N 95.344701 1.345104 0.629561
C 96.673717 1.121649 0.377884
C 97.340033 -0.002065 0.001058
C 96.562194 -1.371913 -0.195961
C 97.102045 -2.639376 -0.096596
C 96.076028 -3.566698 -0.406874
C 94.934692 -2.840921 -0.676981
N 95.227491 -1.509604 -0.491175
C 93.521471 -3.423682 -1.101001
C 93.531353 -4.758032 -1.714280
C 93.139809 -5.829150 -0.989663
C 93.069208 -7.228316 -1.517262
N 93.626909 -7.338168 -2.864444
C 93.930863 -6.220030 -3.609055
C 93.912759 -4.981047 -3.102941
C 92.400105 -2.681642 -0.904782
C 91.079751 -3.145712 -1.291985
C 90.193584 -2.212511 -0.955898
C 90.914376 -1.116838 -0.354956
N 92.235461 -1.439596 -0.357781
H 89.174204 0.022819 -0.023424
H 89.340744 2.294800 1.649627
H 91.300003 4.063134 2.298114
H 93.028389 0.817296 0.244742
H 93.475774 5.314541 -0.369087
H 92.602346 7.502729 0.685529
H 94.262617 7.668755 0.092105
H 93.778678 8.464517 2.490291
H 94.525454 7.029287 4.138751
H 94.520942 4.578804 3.702271
H 96.649484 4.329296 1.157092
H 98.400500 2.583871 0.475866
H 98.124820 -2.874638 0.156970
H 96.160924 -4.642769 -0.438113
H 94.544662 -0.756844 -0.514993
H 92.831103 -5.674422 0.041628
H 92.024230 -7.556997 -1.529889
H 93.624743 -7.898893 -0.853563
H 93.302045 -8.131132 -3.403037
H 94.193391 -6.407351 -4.644469
H 94.163736 -4.108246 -3.696754
H 90.856043 -4.080366 -1.773339
H 89.130883 -2.254899 -1.111828
C 163.414462 -0.020603 0.080429
C 162.680586 -1.392646 -0.027902
C 163.274656 -2.632546 0.034999
C 162.249571 -3.594577 -0.162478
C 161.065153 -2.907976 -0.349580
N 161.332364 -1.569107 -0.207699
C 159.645011 -3.526887 -0.689121
C 159.653277 -4.915003 -1.172915
C 159.962855 -5.163989 -2.463643
C 160.031786 -6.531120 -3.069141
N 159.584989 -7.565890 -2.139303
C 159.346339 -7.294924 -0.811918
C 159.352486 -6.053029 -0.312698
C 158.519011 -2.772557 -0.578384
C 157.219593 -3.299021 -0.939587
C 156.316756 -2.341050 -0.763956
N 158.321150 -1.478174 -0.174953
C 156.992133 -1.155621 -0.271041
C 156.325818 -0.002065 0.001058
C 157.103657 1.265878 0.555697
C 156.563805 2.290584 1.308233
C 157.589822 3.242171 1.533364
C 158.731158 2.767785 0.921261
N 158.438360 1.538498 0.377404
C 160.144379 3.486519 0.868112
C 160.134497 4.943710 1.050304
C 160.526041 5.471987 2.230680
C 160.596642 6.939096 2.519848
N 160.038942 7.742565 1.432923
C 159.734987 7.184869 0.210771
C 159.753092 5.865209 -0.012220
C 161.265745 2.752507 0.643720
C 162.586099 3.350971 0.559294
C 163.472267 2.380786 0.352996
C 162.751474 1.132924 0.286130
N 161.430389 1.408691 0.453860
H 164.491646 -0.010306 -0.032863
H 164.325106 -2.822911 0.191297
H 162.365847 -4.667459 -0.189734
H 160.637461 -0.826802 -0.223756
H 160.190076 -4.324983 -3.115941
H 161.063504 -6.740397 -3.373156
H 159.403233 -6.568683 -3.964959
H 159.887172 -8.509033 -2.346449
H 159.140396 -8.158306 -0.189067
H 159.144908 -5.845822 0.731696
H 157.016366 -4.292195 -1.299666
H 155.265351 -2.449858 -0.958532
H 155.541030 2.356851 1.647722
H 157.504926 4.173077 2.074028
H 159.121188 0.911360 -0.039626
H 160.834747 4.796893 3.025507
H 161.641620 7.225063 2.682369
H 160.041107 7.159105 3.437325
H 160.363805 8.700320 1.393211
H 159.472459 7.889834 -0.570379
H 159.502114 5.436513 -0.976904
H 162.809807 4.398964 0.642909
H 164.534967 2.499000 0.242831
C 99.356289 -0.002065 0.001058
C 100.578207 -0.002065 0.001058
C 110.102560 -0.002065 0.001058
C 111.324478 -0.002065 0.001058
C 120.848831 -0.002065 0.001058
C 122.070749 -0.002065 0.001058
C 131.595102 -0.002065 0.001058
C 132.817019 -0.002065 0.001058
C 142.341373 -0.002065 0.001058
C 143.563290 -0.002065 0.001058
C 153.087643 -0.002065 0.001058
C 154.309561 -0.002065 0.001058
C 101.728501 0.000926 -0.000474
C 102.504193 -0.146640 1.378623
C 101.931016 -0.127425 2.634483
C 102.971514 -0.267222 3.580627
C 104.157532 -0.366102 2.882182
N 103.864365 -0.286454 1.540618
C 105.597134 -0.513524 3.527681
C 105.620742 -0.763537 4.978205
C 105.559827 -2.034850 5.429697
C 105.619088 -2.422492 6.874414
N 105.582125 -1.257710 7.758193
C 105.753469 0.018776 7.271323
C 105.765961 0.301971 5.963198
C 106.723047 -0.404763 2.774611
C 108.035152 -0.483805 3.382575
C 108.947072 -0.323138 2.432618
N 106.919837 -0.213398 1.432810
C 108.264672 -0.159292 1.164179
C 108.947533 0.000926 -0.000474
C 108.170482 0.106219 -1.381306
C 108.736954 0.017650 -2.637342
C 107.696523 0.152580 -3.584518
C 106.518063 0.317315 -2.885488
N 106.813949 0.272911 -1.543354
C 105.082085 0.496726 -3.528543
C 105.062859 0.765113 -4.975603
C 105.167090 2.038669 -5.412655
C 105.115813 2.444738 -6.852513
N 105.110976 1.289725 -7.750106
C 104.895051 0.014662 -7.277106
C 104.876271 -0.282944 -5.972331
C 103.955576 0.400239 -2.774699
C 102.644443 0.515926 -3.378401
C 101.731488 0.361553 -2.428626
C 102.412717 0.164174 -1.164056
N 103.757631 0.194302 -1.435050
H 100.880990 -0.015788 2.856393
H 102.867205 -0.283476 4.655476
H 104.549095 -0.286924 0.788138
H 105.478584 -2.841295 4.705726
H 106.538388 -2.988584 7.059426
H 104.770759 -3.070996 7.115934
H 105.947386 -1.411254 8.689813
H 105.875287 0.791445 8.022615
H 105.895824 1.311760 5.588573
H 108.245202 -0.634311 4.426513
H 110.008316 -0.332339 2.600480
H 109.782475 -0.133759 -2.857312
H 107.795489 0.126211 -4.659932
H 106.131942 0.310388 -0.789544
H 105.279303 2.833471 -4.679969
H 104.214722 3.042570 -7.027478
H 105.983969 3.068158 -7.089919
H 104.745956 1.466974 -8.677539
H 104.741742 -0.744088 -8.036548
H 104.709565 -1.291299 -5.608822
H 102.435657 0.686389 -4.419545
H 100.670417 0.396089 -2.594239
C 112.474771 0.000926 -0.000474
C 113.250464 -0.146640 1.378623
C 112.677287 -0.127425 2.634483
C 113.717785 -0.267222 3.580627
C 114.903803 -0.366102 2.882182
N 114.610636 -0.286454 1.540618
C 116.343405 -0.513524 3.527681
C 116.367013 -0.763537 4.978205
C 116.306098 -2.034850 5.429697
C 116.365359 -2.422492 6.874414
N 116.328395 -1.257710 7.758193
C 116.499739 0.018776 7.271323
C 116.512232 0.301971 5.963198
C 117.469318 -0.404763 2.774611
C 118.781423 -0.483805 3.382575
C 119.693343 -0.323138 2.432618
N 117.666108 -0.213398 1.432810
C 119.010943 -0.159292 1.164179
C 119.693804 0.000926 -0.000474
C 118.916752 0.106219 -1.381306
C 119.483224 0.017650 -2.637342
C 118.442794 0.152580 -3.584518
C 117.264334 0.317315 -2.885488
N 117.560220 0.272911 -1.543354
C 115.828356 0.496726 -3.528543
C 115.809130 0.765113 -4.975603
C 115.913361 2.038669 -5.412655
C 115.862084 2.444738 -6.852513
N 115.857246 1.289725 -7.750106
C 115.641322 0.014662 -7.277106
C 115.622542 -0.282944 -5.972331
C 114.701846 0.400239 -2.774699
C 113.390714 0.515926 -3.378401
C 112.477759 0.361553 -2.428626
C 113.158987 0.164174 -1.164056
N 114.503901 0.194302 -1.435050
H 111.627261 -0.015788 2.856393
H 113.613476 -0.283476 4.655476
H 115.295366 -0.286924 0.788138
H 116.224855 -2.841295 4.705726
H 117.284659 -2.988584 7.059426
H 115.517030 -3.070996 7.115934
H 116.693656 -1.411254 8.689813
H 116.621558 0.791445 8.022615
H 116.642095 1.311760 5.588573
H 118.991472 -0.634311 4.426513
H 120.754587 -0.332339 2.600480
H 120.528746 -0.133759 -2.857312
H 118.541759 0.126211 -4.659932
H 116.878213 0.310388 -0.789544
H 116.025574 2.833471 -4.679969
H 114.960993 3.042570 -7.027478
H 116.730240 3.068158 -7.089919
H 115.492227 1.466974 -8.677539
H 115.488013 -0.744088 -8.036548
H 115.455836 -1.291299 -5.608822
H 113.181928 0.686389 -4.419545
H 111.416687 0.396089 -2.594239
C 123.221042 0.000926 -0.000474
C 123.996735 -0.146640 1.378623
C 123.423558 -0.127425 2.634483
C 124.464056 -0.267222 3.580627
C 125.650073 -0.366102 2.882182
N 125.356907 -0.286454 1.540618
C 127.089676 -0.513524 3.527681
C 127.113284 -0.763537 4.978205
C 127.052368 -2.034850 5.429697
C 127.111629 -2.422492 6.874414
N 127.074666 -1.257710 7.758193
C 127.246010 0.018776 7.271323
C 127.258503 0.301971 5.963198
C 128.215588 -0.404763 2.774611
C 129.527694 -0.483805 3.382575
C 130.439614 -0.323138 2.432618
N 128.412379 -0.213398 1.432810
C 129.757214 -0.159292 1.164179
C 130.440075 0.000926 -0.000474
C 129.663023 0.106219 -1.381306
C 130.229495 0.017650 -2.637342
C 129.189065 0.152580 -3.584518
C 128.010605 0.317315 -2.885488
N 128.306491 0.272911 -1.543354
C 126.574627 0.496726 -3.528543
C 126.555401 0.765113 -4.975603
C 126.659632 2.038669 -5.412655
C 126.608354 2.444738 -6.852513
N 126.603517 1.289725 -7.750106
C 126.387593 0.014662 -7.277106
C 126.368813 -0.282944 -5.972331
C 125.448117 0.400239 -2.774699
C 124.136985 0.515926 -3.378401
C 123.224029 0.361553 -2.428626
C 123.905258 0.164174 -1.164056
N 125.250172 0.194302 -1.435050
H 122.373532 -0.015788 2.856393
H 124.359747 -0.283476 4.655476
H 126.041637 -0.286924 0.788138
H 126.971126 -2.841295 4.705726
H 128.030930 -2.988584 7.059426
H 126.263300 -3.070996 7.115934
H 127.439927 -1.411254 8.689813
H 127.367829 0.791445 8.022615
H 127.388366 1.311760 5.588573
H 129.737743 -0.634311 4.426513
H 131.500858 -0.332339 2.600480
H 131.275017 -0.133759 -2.857312
H 129.288030 0.126211 -4.659932
H 127.624484 0.310388 -0.789544
H 126.771845 2.833471 -4.679969
H 125.707263 3.042570 -7.027478
H 127.476511 3.068158 -7.089919
H 126.238497 1.466974 -8.677539
H 126.234283 -0.744088 -8.036548
H 126.202106 -1.291299 -5.608822
H 123.928199 0.686389 -4.419545
H 122.162958 0.396089 -2.594239
C 133.967313 0.000926 -0.000474
C 134.743006 -0.146640 1.378623
C 134.169828 -0.127425 2.634483
C 135.210327 -0.267222 3.580627
C 136.396344 -0.366102 2.882182
N 136.103178 -0.286454 1.540618
C 137.835946 -0.513524 3.527681
C 137.859555 -0.763537 4.978205
C 137.798639 -2.034850 5.429697
C 137.857900 -2.422492 6.874414
N 137.820937 -1.257710 7.758193
C 137.992281 0.018776 7.271323
C 138.004774 0.301971 5.963198
C 138.961859 -0.404763 2.774611
C 140.273964 -0.483805 3.382575
C 141.185885 -0.323138 2.432618
N 139.158649 -0.213398 1.432810
C 140.503485 -0.159292 1.164179
C 141.186346 0.000926 -0.000474
C 140.409294 0.106219 -1.381306
C 140.975766 0.017650 -2.637342
C 139.935336 0.152580 -3.584518
C 138.756876 0.317315 -2.885488
N 139.052762 0.272911 -1.543354
C 137.320898 0.496726 -3.528543
C 137.301672 0.765113 -4.975603
C 137.405903 2.038669 -5.412655
C 137.354625 2.444738 -6.852513
N 137.349788 1.289725 -7.750106
C 137.133864 0.014662 -7.277106
C 137.115084 -0.282944 -5.972331
C 136.194388 0.400239 -2.774699
C 134.883256 0.515926 -3.378401
C 133.970300 0.361553 -2.428626
C 134.651529 0.164174 -1.164056
N 135.996443 0.194302 -1.435050
H 133.119802 -0.015788 2.856393
H 135.106017 -0.283476 4.655476
H 136.787908 -0.286924 0.788138
H 137.717396 -2.841295 4.705726
H 138.777201 -2.988584 7.059426
H 137.009571 -3.070996 7.115934
H 138.186198 -1.411254 8.689813
H 138.114100 0.791445 8.022615
H 138.134637 1.311760 5.588573
H 140.484014 -0.634311 4.426513
H 142.247129 -0.332339 2.600480
H 142.021288 -0.133759 -2.857312
H 140.034301 0.126211 -4.659932
H 138.370755 0.310388 -0.789544
H 137.518116 2.833471 -4.679969
H 136.453534 3.042570 -7.027478
H 138.222782 3.068158 -7.089919
H 136.984768 1.466974 -8.677539
H 136.980554 -0.744088 -8.036548
H 136.948377 -1.291299 -5.608822
H 134.674470 0.686389 -4.419545
H 132.909229 0.396089 -2.594239
C 144.713584 0.000926 -0.000474
C 145.489276 -0.146640 1.378623
C 144.916099 -0.127425 2.634483
C 145.956598 -0.267222 3.580627
C 147.142615 -0.366102 2.882182
N 146.849449 -0.286454 1.540618
C 148.582217 -0.513524 3.527681
C 148.605826 -0.763537 4.978205
C 148.544910 -2.034850 5.429697
C 148.604171 -2.422492 6.874414
N 148.567208 -1.257710 7.758193
C 148.738552 0.018776 7.271323
C 148.751044 0.301971 5.963198
C 149.708130 -0.404763 2.774611
C 151.020235 -0.483805 3.382575
C 151.932155 -0.323138 2.432618
N 149.904920 -0.213398 1.432810
C 151.249755 -0.159292 1.164179
C 151.932617 0.000926 -0.000474
C 151.155565 0.106219 -1.381306
C 151.722037 0.017650 -2.637342
C 150.681606 0.152580 -3.584518
C 149.503146 0.317315 -2.885488
N 149.799033 0.272911 -1.543354
C 148.067169 0.496726 -3.528543
C 148.047943 0.765113 -4.975603
C 148.152173 2.038669 -5.412655
C 148.100896 2.444738 -6.852513
N 148.096059 1.289725 -7.750106
C 147.880135 0.014662 -7.277106
C 147.861354 -0.282944 -5.972331
C 146.940659 0.400239 -2.774699
C 145.629527 0.515926 -3.378401
C 144.716571 0.361553 -2.428626
C 145.397800 0.164174 -1.164056
N 146.742714 0.194302 -1.435050
H 143.866073 -0.015788 2.856393
H 145.852288 -0.283476 4.655476
H 147.534178 -0.286924 0.788138
H 148.463667 -2.841295 4.705726
H 149.523471 -2.988584 7.059426
H 147.755842 -3.070996 7.115934
H 148.932469 -1.411254 8.689813
H 148.860371 0.791445 8.022615
H 148.880908 1.311760 5.588573
H 151.230285 -0.634311 4.426513
H 152.993400 -0.332339 2.600480
H 152.767558 -0.133759 -2.857312
H 150.780572 0.126211 -4.659932
H 149.117025 0.310388 -0.789544
H 148.264387 2.833471 -4.679969
H 147.199805 3.042570 -7.027478
H 148.969052 3.068158 -7.089919
H 147.731039 1.466974 -8.677539
H 147.726825 -0.744088 -8.036548
H 147.694648 -1.291299 -5.608822
H 145.420741 0.686389 -4.419545
H 143.655500 0.396089 -2.594239
