 xtb: 6.5.1 (b24c23e)
          07272215083D

420468  0     0  0            999 V2000
   90.6641   -0.0793   -0.2933 C   0  0  0  0  0  0  0  0  0  0  0  0
   91.2293    0.8678    0.5507 C   0  0  0  0  0  0  0  0  0  0  0  0
   90.5340    1.7860    1.3868 C   0  0  0  0  0  0  0  0  0  0  0  0
   91.4623    2.5474    2.0396 C   0  0  0  0  0  0  0  0  0  0  0  0
   92.7551    2.1261    1.6162 C   0  0  0  0  0  0  0  0  0  0  0  0
   92.5631    1.1043    0.7289 N   0  0  0  0  0  0  0  0  0  0  0  0
   93.9958    2.6314    2.0189 C   0  0  0  0  0  0  0  0  0  0  0  0
   93.9789    3.7741    2.9651 C   0  0  0  0  0  0  0  0  0  0  0  0
   93.4075    4.9450    2.6457 C   0  0  0  0  0  0  0  0  0  0  0  0
   93.3629    6.1129    3.5965 C   0  0  0  0  0  0  0  0  0  0  0  0
   94.2993    5.9303    4.7088 N   0  0  0  0  0  0  0  0  0  0  0  0
   94.7094    4.6771    5.0818 C   0  0  0  0  0  0  0  0  0  0  0  0
   94.6118    3.6125    4.2661 C   0  0  0  0  0  0  0  0  0  0  0  0
   95.2348    2.1443    1.5943 C   0  0  0  0  0  0  0  0  0  0  0  0
   96.5051    2.7334    1.9751 C   0  0  0  0  0  0  0  0  0  0  0  0
   97.4627    2.0027    1.3674 C   0  0  0  0  0  0  0  0  0  0  0  0
   95.4414    1.0879    0.7606 N   0  0  0  0  0  0  0  0  0  0  0  0
   96.7777    0.9701    0.6150 C   0  0  0  0  0  0  0  0  0  0  0  0
   97.4613    0.0007   -0.1458 C   0  0  0  0  0  0  0  0  0  0  0  0
   96.8683   -0.9931   -0.9481 C   0  0  0  0  0  0  0  0  0  0  0  0
   97.5504   -2.0008   -1.6791 C   0  0  0  0  0  0  0  0  0  0  0  0
   96.6161   -2.7541   -2.3347 C   0  0  0  0  0  0  0  0  0  0  0  0
   95.3323   -2.2274   -2.0253 C   0  0  0  0  0  0  0  0  0  0  0  0
   95.5359   -1.1705   -1.1776 N   0  0  0  0  0  0  0  0  0  0  0  0
   94.0934   -2.7031   -2.4706 C   0  0  0  0  0  0  0  0  0  0  0  0
   94.1227   -3.8427   -3.4187 C   0  0  0  0  0  0  0  0  0  0  0  0
   93.5450   -5.0179   -3.1277 C   0  0  0  0  0  0  0  0  0  0  0  0
   93.5496   -6.1827   -4.0829 C   0  0  0  0  0  0  0  0  0  0  0  0
   94.5435   -5.9973   -5.1440 N   0  0  0  0  0  0  0  0  0  0  0  0
   94.9606   -4.7406   -5.4985 C   0  0  0  0  0  0  0  0  0  0  0  0
   94.8163   -3.6770   -4.6887 C   0  0  0  0  0  0  0  0  0  0  0  0
   92.8535   -2.1838   -2.0861 C   0  0  0  0  0  0  0  0  0  0  0  0
   91.5745   -2.6496   -2.5988 C   0  0  0  0  0  0  0  0  0  0  0  0
   90.6248   -1.9179   -1.9813 C   0  0  0  0  0  0  0  0  0  0  0  0
   91.3227   -0.9967   -1.1025 C   0  0  0  0  0  0  0  0  0  0  0  0
   92.6621   -1.1775   -1.1991 N   0  0  0  0  0  0  0  0  0  0  0  0
   89.5792   -0.0957   -0.3197 H   0  0  0  0  0  0  0  0  0  0  0  0
   89.4604    1.8426    1.4725 H   0  0  0  0  0  0  0  0  0  0  0  0
   91.2743    3.3283    2.7585 H   0  0  0  0  0  0  0  0  0  0  0  0
   93.3122    0.5964    0.2706 H   0  0  0  0  0  0  0  0  0  0  0  0
   92.9357    5.1066    1.6833 H   0  0  0  0  0  0  0  0  0  0  0  0
   92.3360    6.2497    3.9846 H   0  0  0  0  0  0  0  0  0  0  0  0
   93.6358    7.0385    3.0712 H   0  0  0  0  0  0  0  0  0  0  0  0
   94.1878    6.6045    5.4520 H   0  0  0  0  0  0  0  0  0  0  0  0
   95.1928    4.6280    6.0524 H   0  0  0  0  0  0  0  0  0  0  0  0
   94.9872    2.6422    4.5584 H   0  0  0  0  0  0  0  0  0  0  0  0
   96.6253    3.5960    2.6105 H   0  0  0  0  0  0  0  0  0  0  0  0
   98.5316    2.1397    1.3984 H   0  0  0  0  0  0  0  0  0  0  0  0
   98.6197   -2.1345   -1.6885 H   0  0  0  0  0  0  0  0  0  0  0  0
   96.7966   -3.6058   -2.9700 H   0  0  0  0  0  0  0  0  0  0  0  0
   94.7923   -0.6115   -0.7723 H   0  0  0  0  0  0  0  0  0  0  0  0
   93.0300   -5.1835   -2.1886 H   0  0  0  0  0  0  0  0  0  0  0  0
   92.5446   -6.3176   -4.5246 H   0  0  0  0  0  0  0  0  0  0  0  0
   93.7948   -7.1098   -3.5470 H   0  0  0  0  0  0  0  0  0  0  0  0
   94.4703   -6.6705   -5.8930 H   0  0  0  0  0  0  0  0  0  0  0  0
   95.4895   -4.6877   -6.4449 H   0  0  0  0  0  0  0  0  0  0  0  0
   95.1953   -2.7033   -4.9654 H   0  0  0  0  0  0  0  0  0  0  0  0
   91.4456   -3.4221   -3.3399 H   0  0  0  0  0  0  0  0  0  0  0  0
   89.5531   -1.9671   -2.0959 H   0  0  0  0  0  0  0  0  0  0  0  0
  162.9895   -0.1110   -0.5249 C   0  0  0  0  0  0  0  0  0  0  0  0
  162.3478   -0.8321   -1.5233 C   0  0  0  0  0  0  0  0  0  0  0  0
  162.9671   -1.6035   -2.5466 C   0  0  0  0  0  0  0  0  0  0  0  0
  161.9808   -2.1378   -3.3270 C   0  0  0  0  0  0  0  0  0  0  0  0
  160.7263   -1.7011   -2.8132 C   0  0  0  0  0  0  0  0  0  0  0  0
  160.9991   -0.9275   -1.7197 N   0  0  0  0  0  0  0  0  0  0  0  0
  159.4492   -1.9986   -3.3002 C   0  0  0  0  0  0  0  0  0  0  0  0
  159.3752   -2.8338   -4.5238 C   0  0  0  0  0  0  0  0  0  0  0  0
  159.9218   -2.4375   -5.6831 C   0  0  0  0  0  0  0  0  0  0  0  0
  159.8762   -3.2810   -6.9307 C   0  0  0  0  0  0  0  0  0  0  0  0
  158.8737   -4.3437   -6.8173 N   0  0  0  0  0  0  0  0  0  0  0  0
  158.4922   -4.8139   -5.5871 C   0  0  0  0  0  0  0  0  0  0  0  0
  158.6783   -4.1105   -4.4565 C   0  0  0  0  0  0  0  0  0  0  0  0
  158.2530   -1.5701   -2.7174 C   0  0  0  0  0  0  0  0  0  0  0  0
  156.9397   -1.8460   -3.2706 C   0  0  0  0  0  0  0  0  0  0  0  0
  156.0453   -1.2811   -2.4332 C   0  0  0  0  0  0  0  0  0  0  0  0
  158.1347   -0.8357   -1.5780 N   0  0  0  0  0  0  0  0  0  0  0  0
  156.8127   -0.6549   -1.3739 C   0  0  0  0  0  0  0  0  0  0  0  0
  156.2115    0.0046   -0.2853 C   0  0  0  0  0  0  0  0  0  0  0  0
  156.8788    0.6584    0.7666 C   0  0  0  0  0  0  0  0  0  0  0  0
  156.2688    1.3255    1.8619 C   0  0  0  0  0  0  0  0  0  0  0  0
  157.2600    1.8762    2.6264 C   0  0  0  0  0  0  0  0  0  0  0  0
  158.5072    1.5673    2.0172 C   0  0  0  0  0  0  0  0  0  0  0  0
  158.2257    0.8205    0.9039 N   0  0  0  0  0  0  0  0  0  0  0  0
  159.7828    1.9314    2.4642 C   0  0  0  0  0  0  0  0  0  0  0  0
  159.8444    2.7878    3.6728 C   0  0  0  0  0  0  0  0  0  0  0  0
  160.4689    2.3913    4.7918 C   0  0  0  0  0  0  0  0  0  0  0  0
  160.5607    3.2621    6.0178 C   0  0  0  0  0  0  0  0  0  0  0  0
  159.5777    4.3482    5.9717 N   0  0  0  0  0  0  0  0  0  0  0  0
  159.1164    4.8145    4.7672 C   0  0  0  0  0  0  0  0  0  0  0  0
  159.1886    4.0882    3.6382 C   0  0  0  0  0  0  0  0  0  0  0  0
  160.9800    1.5526    1.8489 C   0  0  0  0  0  0  0  0  0  0  0  0
  162.3002    1.9728    2.2918 C   0  0  0  0  0  0  0  0  0  0  0  0
  163.1869    1.3903    1.4595 C   0  0  0  0  0  0  0  0  0  0  0  0
  162.4094    0.6290    0.4981 C   0  0  0  0  0  0  0  0  0  0  0  0
  161.0857    0.7570    0.7570 N   0  0  0  0  0  0  0  0  0  0  0  0
  164.0743   -0.1301   -0.5576 H   0  0  0  0  0  0  0  0  0  0  0  0
  164.0325   -1.7303   -2.6564 H   0  0  0  0  0  0  0  0  0  0  0  0
  162.1048   -2.7852   -4.1799 H   0  0  0  0  0  0  0  0  0  0  0  0
  160.2917   -0.4896   -1.1391 H   0  0  0  0  0  0  0  0  0  0  0  0
  160.4382   -1.4891   -5.7766 H   0  0  0  0  0  0  0  0  0  0  0  0
  160.8721   -3.7190   -7.1316 H   0  0  0  0  0  0  0  0  0  0  0  0
  159.6152   -2.6595   -7.7981 H   0  0  0  0  0  0  0  0  0  0  0  0
  158.9176   -5.0258   -7.5606 H   0  0  0  0  0  0  0  0  0  0  0  0
  157.9548   -5.7566   -5.6080 H   0  0  0  0  0  0  0  0  0  0  0  0
  158.3255   -4.4744   -3.5020 H   0  0  0  0  0  0  0  0  0  0  0  0
  156.7502   -2.3917   -4.1808 H   0  0  0  0  0  0  0  0  0  0  0  0
  154.9694   -1.2746   -2.5046 H   0  0  0  0  0  0  0  0  0  0  0  0
  155.2058    1.3743    2.0350 H   0  0  0  0  0  0  0  0  0  0  0  0
  157.1416    2.4441    3.5348 H   0  0  0  0  0  0  0  0  0  0  0  0
  158.9285    0.4469    0.2746 H   0  0  0  0  0  0  0  0  0  0  0  0
  160.9561    1.4259    4.8627 H   0  0  0  0  0  0  0  0  0  0  0  0
  161.5813    3.6778    6.1147 H   0  0  0  0  0  0  0  0  0  0  0  0
  160.3658    2.6674    6.9203 H   0  0  0  0  0  0  0  0  0  0  0  0
  159.7037    5.0403    6.6963 H   0  0  0  0  0  0  0  0  0  0  0  0
  158.6135    5.7752    4.8138 H   0  0  0  0  0  0  0  0  0  0  0  0
  158.7757    4.4515    2.7077 H   0  0  0  0  0  0  0  0  0  0  0  0
  162.4972    2.6332    3.1210 H   0  0  0  0  0  0  0  0  0  0  0  0
  164.2637    1.4600    1.4636 H   0  0  0  0  0  0  0  0  0  0  0  0
   98.8704    0.0147   -0.1118 C   0  0  0  0  0  0  0  0  0  0  0  0
  100.0877    0.0192   -0.0907 C   0  0  0  0  0  0  0  0  0  0  0  0
  109.8028    0.0467    0.0881 C   0  0  0  0  0  0  0  0  0  0  0  0
  111.0207    0.0295    0.1070 C   0  0  0  0  0  0  0  0  0  0  0  0
  120.7420   -0.0001    0.2544 C   0  0  0  0  0  0  0  0  0  0  0  0
  121.9604   -0.0089    0.2618 C   0  0  0  0  0  0  0  0  0  0  0  0
  131.6925   -0.0912    0.2590 C   0  0  0  0  0  0  0  0  0  0  0  0
  132.9112   -0.0975    0.2467 C   0  0  0  0  0  0  0  0  0  0  0  0
  142.6546    0.0187    0.1827 C   0  0  0  0  0  0  0  0  0  0  0  0
  143.8729    0.0661    0.1662 C   0  0  0  0  0  0  0  0  0  0  0  0
  153.5862    0.0480   -0.1809 C   0  0  0  0  0  0  0  0  0  0  0  0
  154.8013    0.0255   -0.2328 C   0  0  0  0  0  0  0  0  0  0  0  0
  101.4960    0.0230   -0.0612 C   0  0  0  0  0  0  0  0  0  0  0  0
  102.1026    0.6123    1.0645 C   0  0  0  0  0  0  0  0  0  0  0  0
  101.4399    1.2062    2.1691 C   0  0  0  0  0  0  0  0  0  0  0  0
  102.3933    1.6879    3.0240 C   0  0  0  0  0  0  0  0  0  0  0  0
  103.6685    1.3897    2.4718 C   0  0  0  0  0  0  0  0  0  0  0  0
  103.4417    0.7390    1.2881 N   0  0  0  0  0  0  0  0  0  0  0  0
  104.9178    1.7254    3.0055 C   0  0  0  0  0  0  0  0  0  0  0  0
  104.9101    2.4507    4.3018 C   0  0  0  0  0  0  0  0  0  0  0  0
  104.4477    1.8819    5.4248 C   0  0  0  0  0  0  0  0  0  0  0  0
  104.4813    2.5827    6.7577 C   0  0  0  0  0  0  0  0  0  0  0  0
  104.6792    4.0252    6.5927 N   0  0  0  0  0  0  0  0  0  0  0  0
  105.3005    4.5222    5.4763 C   0  0  0  0  0  0  0  0  0  0  0  0
  105.4149    3.8154    4.3382 C   0  0  0  0  0  0  0  0  0  0  0  0
  106.1564    1.4397    2.4303 C   0  0  0  0  0  0  0  0  0  0  0  0
  107.4242    1.7817    3.0485 C   0  0  0  0  0  0  0  0  0  0  0  0
  108.3878    1.3171    2.2264 C   0  0  0  0  0  0  0  0  0  0  0  0
  106.3714    0.7766    1.2600 N   0  0  0  0  0  0  0  0  0  0  0  0
  107.7092    0.6845    1.1135 C   0  0  0  0  0  0  0  0  0  0  0  0
  108.3954    0.0608    0.0518 C   0  0  0  0  0  0  0  0  0  0  0  0
  107.7874   -0.5661   -1.0537 C   0  0  0  0  0  0  0  0  0  0  0  0
  108.4471   -1.2470   -2.1084 C   0  0  0  0  0  0  0  0  0  0  0  0
  107.4933   -1.7157   -2.9702 C   0  0  0  0  0  0  0  0  0  0  0  0
  106.2210   -1.3319   -2.4669 C   0  0  0  0  0  0  0  0  0  0  0  0
  106.4493   -0.6466   -1.3030 N   0  0  0  0  0  0  0  0  0  0  0  0
  104.9718   -1.6114   -3.0329 C   0  0  0  0  0  0  0  0  0  0  0  0
  104.9802   -2.3263   -4.3339 C   0  0  0  0  0  0  0  0  0  0  0  0
  105.5301   -1.7852   -5.4314 C   0  0  0  0  0  0  0  0  0  0  0  0
  105.4999   -2.4725   -6.7713 C   0  0  0  0  0  0  0  0  0  0  0  0
  105.2008   -3.8996   -6.6268 N   0  0  0  0  0  0  0  0  0  0  0  0
  104.4957   -4.3576   -5.5435 C   0  0  0  0  0  0  0  0  0  0  0  0
  104.3799   -3.6504   -4.4058 C   0  0  0  0  0  0  0  0  0  0  0  0
  103.7330   -1.2794   -2.4827 C   0  0  0  0  0  0  0  0  0  0  0  0
  102.4676   -1.5280   -3.1487 C   0  0  0  0  0  0  0  0  0  0  0  0
  101.5040   -1.0729   -2.3209 C   0  0  0  0  0  0  0  0  0  0  0  0
  102.1812   -0.5458   -1.1533 C   0  0  0  0  0  0  0  0  0  0  0  0
  103.5182   -0.6719   -1.2833 N   0  0  0  0  0  0  0  0  0  0  0  0
  100.3701    1.2576    2.2883 H   0  0  0  0  0  0  0  0  0  0  0  0
  102.2306    2.2098    3.9528 H   0  0  0  0  0  0  0  0  0  0  0  0
  104.1688    0.4053    0.6642 H   0  0  0  0  0  0  0  0  0  0  0  0
  104.0929    0.8579    5.4416 H   0  0  0  0  0  0  0  0  0  0  0  0
  105.2828    2.1592    7.3921 H   0  0  0  0  0  0  0  0  0  0  0  0
  103.5325    2.4289    7.2894 H   0  0  0  0  0  0  0  0  0  0  0  0
  104.8598    4.5136    7.4580 H   0  0  0  0  0  0  0  0  0  0  0  0
  105.6151    5.5579    5.5557 H   0  0  0  0  0  0  0  0  0  0  0  0
  105.8391    4.2508    3.4447 H   0  0  0  0  0  0  0  0  0  0  0  0
  107.5395    2.2980    3.9879 H   0  0  0  0  0  0  0  0  0  0  0  0
  109.4574    1.3863    2.3404 H   0  0  0  0  0  0  0  0  0  0  0  0
  109.5146   -1.3711   -2.1865 H   0  0  0  0  0  0  0  0  0  0  0  0
  107.6534   -2.2880   -3.8693 H   0  0  0  0  0  0  0  0  0  0  0  0
  105.7236   -0.2631   -0.7068 H   0  0  0  0  0  0  0  0  0  0  0  0
  105.9583   -0.7896   -5.4235 H   0  0  0  0  0  0  0  0  0  0  0  0
  104.7528   -1.9920   -7.4310 H   0  0  0  0  0  0  0  0  0  0  0  0
  106.4762   -2.3788   -7.2658 H   0  0  0  0  0  0  0  0  0  0  0  0
  105.0245   -4.3693   -7.5032 H   0  0  0  0  0  0  0  0  0  0  0  0
  104.1136   -5.3683   -5.6454 H   0  0  0  0  0  0  0  0  0  0  0  0
  103.8862   -4.0595   -3.5359 H   0  0  0  0  0  0  0  0  0  0  0  0
  102.3547   -1.9747   -4.1235 H   0  0  0  0  0  0  0  0  0  0  0  0
  100.4366   -1.0693   -2.4717 H   0  0  0  0  0  0  0  0  0  0  0  0
  112.4280    0.0094    0.1347 C   0  0  0  0  0  0  0  0  0  0  0  0
  113.0407    0.1913    1.3900 C   0  0  0  0  0  0  0  0  0  0  0  0
  112.3846    0.3799    2.6330 C   0  0  0  0  0  0  0  0  0  0  0  0
  113.3426    0.5607    3.5931 C   0  0  0  0  0  0  0  0  0  0  0  0
  114.6144    0.4758    2.9648 C   0  0  0  0  0  0  0  0  0  0  0  0
  114.3809    0.2471    1.6345 N   0  0  0  0  0  0  0  0  0  0  0  0
  115.8652    0.6461    3.5692 C   0  0  0  0  0  0  0  0  0  0  0  0
  115.8608    0.9191    5.0296 C   0  0  0  0  0  0  0  0  0  0  0  0
  115.4314    0.0078    5.9147 C   0  0  0  0  0  0  0  0  0  0  0  0
  115.4702    0.2465    7.4015 C   0  0  0  0  0  0  0  0  0  0  0  0
  115.6228    1.6720    7.7045 N   0  0  0  0  0  0  0  0  0  0  0  0
  116.2140    2.5180    6.8019 C   0  0  0  0  0  0  0  0  0  0  0  0
  116.3303    2.2150    5.4970 C   0  0  0  0  0  0  0  0  0  0  0  0
  117.1011    0.5841    2.9254 C   0  0  0  0  0  0  0  0  0  0  0  0
  118.3700    0.7515    3.6096 C   0  0  0  0  0  0  0  0  0  0  0  0
  119.3316    0.5785    2.6791 C   0  0  0  0  0  0  0  0  0  0  0  0
  117.3137    0.3122    1.6075 N   0  0  0  0  0  0  0  0  0  0  0  0
  118.6510    0.2935    1.4324 C   0  0  0  0  0  0  0  0  0  0  0  0
  119.3348    0.0123    0.2318 C   0  0  0  0  0  0  0  0  0  0  0  0
  118.7209   -0.2757   -1.0035 C   0  0  0  0  0  0  0  0  0  0  0  0
  119.3741   -0.6342   -2.2100 C   0  0  0  0  0  0  0  0  0  0  0  0
  118.4160   -0.8278   -3.1676 C   0  0  0  0  0  0  0  0  0  0  0  0
  117.1476   -0.5886   -2.5734 C   0  0  0  0  0  0  0  0  0  0  0  0
  117.3821   -0.2706   -1.2618 N   0  0  0  0  0  0  0  0  0  0  0  0
  115.8967   -0.6648   -3.1973 C   0  0  0  0  0  0  0  0  0  0  0  0
  115.9000   -0.9561   -4.6526 C   0  0  0  0  0  0  0  0  0  0  0  0
  116.4817   -0.1296   -5.5350 C   0  0  0  0  0  0  0  0  0  0  0  0
  116.4470   -0.3809   -7.0196 C   0  0  0  0  0  0  0  0  0  0  0  0
  116.1028   -1.7748   -7.3117 N   0  0  0  0  0  0  0  0  0  0  0  0
  115.3680   -2.5122   -6.4189 C   0  0  0  0  0  0  0  0  0  0  0  0
  115.2586   -2.1756   -5.1218 C   0  0  0  0  0  0  0  0  0  0  0  0
  114.6605   -0.4888   -2.5737 C   0  0  0  0  0  0  0  0  0  0  0  0
  113.3963   -0.4871   -3.2864 C   0  0  0  0  0  0  0  0  0  0  0  0
  112.4349   -0.2950   -2.3591 C   0  0  0  0  0  0  0  0  0  0  0  0
  113.1119   -0.1807   -1.0834 C   0  0  0  0  0  0  0  0  0  0  0  0
  114.4473   -0.2838   -1.2444 N   0  0  0  0  0  0  0  0  0  0  0  0
  111.3159    0.3774    2.7700 H   0  0  0  0  0  0  0  0  0  0  0  0
  113.1849    0.7437    4.6434 H   0  0  0  0  0  0  0  0  0  0  0  0
  115.1042    0.1426    0.9307 H   0  0  0  0  0  0  0  0  0  0  0  0
  115.1024   -0.9775    5.6055 H   0  0  0  0  0  0  0  0  0  0  0  0
  116.2957   -0.3301    7.8599 H   0  0  0  0  0  0  0  0  0  0  0  0
  114.5366   -0.1007    7.8645 H   0  0  0  0  0  0  0  0  0  0  0  0
  115.8039    1.8640    8.6793 H   0  0  0  0  0  0  0  0  0  0  0  0
  116.5014    3.4834    7.2061 H   0  0  0  0  0  0  0  0  0  0  0  0
  116.7290    2.9255    4.7869 H   0  0  0  0  0  0  0  0  0  0  0  0
  118.4879    0.9640    4.6600 H   0  0  0  0  0  0  0  0  0  0  0  0
  120.4010    0.6342    2.8014 H   0  0  0  0  0  0  0  0  0  0  0  0
  120.4402   -0.7433   -2.3224 H   0  0  0  0  0  0  0  0  0  0  0  0
  118.5711   -1.1226   -4.1926 H   0  0  0  0  0  0  0  0  0  0  0  0
  116.6602   -0.0678   -0.5784 H   0  0  0  0  0  0  0  0  0  0  0  0
  116.9409    0.8025   -5.2270 H   0  0  0  0  0  0  0  0  0  0  0  0
  115.7229    0.2999   -7.5059 H   0  0  0  0  0  0  0  0  0  0  0  0
  117.4315   -0.1749   -7.4608 H   0  0  0  0  0  0  0  0  0  0  0  0
  115.9244   -1.9537   -8.2895 H   0  0  0  0  0  0  0  0  0  0  0  0
  114.9555   -3.4319   -6.8214 H   0  0  0  0  0  0  0  0  0  0  0  0
  114.7399   -2.8099   -4.4172 H   0  0  0  0  0  0  0  0  0  0  0  0
  113.2827   -0.5997   -4.3527 H   0  0  0  0  0  0  0  0  0  0  0  0
  111.3693   -0.2198   -2.5033 H   0  0  0  0  0  0  0  0  0  0  0  0
  123.3676   -0.0292    0.2666 C   0  0  0  0  0  0  0  0  0  0  0  0
  123.9997   -0.1618    1.5186 C   0  0  0  0  0  0  0  0  0  0  0  0
  123.3653   -0.2832    2.7808 C   0  0  0  0  0  0  0  0  0  0  0  0
  124.3395   -0.3296    3.7405 C   0  0  0  0  0  0  0  0  0  0  0  0
  125.6001   -0.2501    3.0896 C   0  0  0  0  0  0  0  0  0  0  0  0
  125.3440   -0.1568    1.7473 N   0  0  0  0  0  0  0  0  0  0  0  0
  126.8600   -0.2121    3.6978 C   0  0  0  0  0  0  0  0  0  0  0  0
  126.8776   -0.2839    5.1821 C   0  0  0  0  0  0  0  0  0  0  0  0
  126.4828   -1.3849    5.8376 C   0  0  0  0  0  0  0  0  0  0  0  0
  126.5430   -1.4956    7.3386 C   0  0  0  0  0  0  0  0  0  0  0  0
  126.6764   -0.1758    7.9613 N   0  0  0  0  0  0  0  0  0  0  0  0
  127.2330    0.8697    7.2710 C   0  0  0  0  0  0  0  0  0  0  0  0
  127.3302    0.8797    5.9299 C   0  0  0  0  0  0  0  0  0  0  0  0
  128.0861   -0.1125    3.0406 C   0  0  0  0  0  0  0  0  0  0  0  0
  129.3632   -0.0878    3.7294 C   0  0  0  0  0  0  0  0  0  0  0  0
  130.3127   -0.0444    2.7720 C   0  0  0  0  0  0  0  0  0  0  0  0
  128.2823   -0.0844    1.6926 N   0  0  0  0  0  0  0  0  0  0  0  0
  129.6172   -0.0558    1.5015 C   0  0  0  0  0  0  0  0  0  0  0  0
  130.2854   -0.0738    0.2596 C   0  0  0  0  0  0  0  0  0  0  0  0
  129.6503   -0.0862   -0.9988 C   0  0  0  0  0  0  0  0  0  0  0  0
  130.2793   -0.1821   -2.2656 C   0  0  0  0  0  0  0  0  0  0  0  0
  129.3047   -0.1399   -3.2255 C   0  0  0  0  0  0  0  0  0  0  0  0
  128.0501   -0.0129   -2.5710 C   0  0  0  0  0  0  0  0  0  0  0  0
  128.3084   -0.0020   -1.2258 N   0  0  0  0  0  0  0  0  0  0  0  0
  126.7912    0.0896   -3.1754 C   0  0  0  0  0  0  0  0  0  0  0  0
  126.7743    0.1549   -4.6579 C   0  0  0  0  0  0  0  0  0  0  0  0
  127.3769    1.1515   -5.3243 C   0  0  0  0  0  0  0  0  0  0  0  0
  127.3263    1.2670   -6.8249 C   0  0  0  0  0  0  0  0  0  0  0  0
  126.9194    0.0010   -7.4403 N   0  0  0  0  0  0  0  0  0  0  0  0
  126.1705   -0.9082   -6.7386 C   0  0  0  0  0  0  0  0  0  0  0  0
  126.0881   -0.8948   -5.3967 C   0  0  0  0  0  0  0  0  0  0  0  0
  125.5658    0.1400   -2.5096 C   0  0  0  0  0  0  0  0  0  0  0  0
  124.2960    0.3452   -3.1816 C   0  0  0  0  0  0  0  0  0  0  0  0
  123.3467    0.3149   -2.2229 C   0  0  0  0  0  0  0  0  0  0  0  0
  124.0367    0.0919   -0.9690 C   0  0  0  0  0  0  0  0  0  0  0  0
  125.3684    0.0118   -1.1682 N   0  0  0  0  0  0  0  0  0  0  0  0
  122.2992   -0.3269    2.9307 H   0  0  0  0  0  0  0  0  0  0  0  0
  124.2000   -0.4052    4.8065 H   0  0  0  0  0  0  0  0  0  0  0  0
  126.0543   -0.0847    1.0265 H   0  0  0  0  0  0  0  0  0  0  0  0
  126.1672   -2.2792    5.3128 H   0  0  0  0  0  0  0  0  0  0  0  0
  127.3859   -2.1454    7.6408 H   0  0  0  0  0  0  0  0  0  0  0  0
  125.6235   -1.9596    7.7205 H   0  0  0  0  0  0  0  0  0  0  0  0
  126.8703   -0.2098    8.9517 H   0  0  0  0  0  0  0  0  0  0  0  0
  127.5094    1.7218    7.8839 H   0  0  0  0  0  0  0  0  0  0  0  0
  127.7016    1.7441    5.3981 H   0  0  0  0  0  0  0  0  0  0  0  0
  129.4942   -0.1089    4.7994 H   0  0  0  0  0  0  0  0  0  0  0  0
  131.3831   -0.0069    2.8908 H   0  0  0  0  0  0  0  0  0  0  0  0
  131.3407   -0.2849   -2.4183 H   0  0  0  0  0  0  0  0  0  0  0  0
  129.4400   -0.2036   -4.2928 H   0  0  0  0  0  0  0  0  0  0  0  0
  127.6010    0.0575   -0.5011 H   0  0  0  0  0  0  0  0  0  0  0  0
  127.8684    1.9676   -4.8074 H   0  0  0  0  0  0  0  0  0  0  0  0
  126.6321    2.0751   -7.1230 H   0  0  0  0  0  0  0  0  0  0  0  0
  128.3180    1.5317   -7.2166 H   0  0  0  0  0  0  0  0  0  0  0  0
  126.7231    0.0724   -8.4283 H   0  0  0  0  0  0  0  0  0  0  0  0
  125.7205   -1.6883   -7.3444 H   0  0  0  0  0  0  0  0  0  0  0  0
  125.5558   -1.6653   -4.8574 H   0  0  0  0  0  0  0  0  0  0  0  0
  124.1713    0.5080   -4.2402 H   0  0  0  0  0  0  0  0  0  0  0  0
  122.2820    0.4457   -2.3288 H   0  0  0  0  0  0  0  0  0  0  0  0
  134.3182   -0.1060    0.2367 C   0  0  0  0  0  0  0  0  0  0  0  0
  134.9644   -0.4186    1.4494 C   0  0  0  0  0  0  0  0  0  0  0  0
  134.3448   -0.7454    2.6820 C   0  0  0  0  0  0  0  0  0  0  0  0
  135.3284   -0.9137    3.6181 C   0  0  0  0  0  0  0  0  0  0  0  0
  136.5808   -0.7057    2.9800 C   0  0  0  0  0  0  0  0  0  0  0  0
  136.3103   -0.4180    1.6683 N   0  0  0  0  0  0  0  0  0  0  0  0
  137.8440   -0.7248    3.5817 C   0  0  0  0  0  0  0  0  0  0  0  0
  137.8746   -1.0114    5.0399 C   0  0  0  0  0  0  0  0  0  0  0  0
  137.5176   -2.2073    5.5297 C   0  0  0  0  0  0  0  0  0  0  0  0
  137.5938   -2.5323    6.9986 C   0  0  0  0  0  0  0  0  0  0  0  0
  137.6867   -1.3128    7.8056 N   0  0  0  0  0  0  0  0  0  0  0  0
  138.2083   -0.1619    7.2733 C   0  0  0  0  0  0  0  0  0  0  0  0
  138.2975    0.0448    5.9476 C   0  0  0  0  0  0  0  0  0  0  0  0
  139.0629   -0.4985    2.9427 C   0  0  0  0  0  0  0  0  0  0  0  0
  140.3422   -0.5430    3.6261 C   0  0  0  0  0  0  0  0  0  0  0  0
  141.2852   -0.3381    2.6835 C   0  0  0  0  0  0  0  0  0  0  0  0
  139.2519   -0.2709    1.6127 N   0  0  0  0  0  0  0  0  0  0  0  0
  140.5851   -0.1819    1.4258 C   0  0  0  0  0  0  0  0  0  0  0  0
  141.2474   -0.0146    0.1914 C   0  0  0  0  0  0  0  0  0  0  0  0
  140.5999    0.1113   -1.0552 C   0  0  0  0  0  0  0  0  0  0  0  0
  141.2164    0.1817   -2.3295 C   0  0  0  0  0  0  0  0  0  0  0  0
  140.2323    0.3319   -3.2685 C   0  0  0  0  0  0  0  0  0  0  0  0
  138.9832    0.3611   -2.5926 C   0  0  0  0  0  0  0  0  0  0  0  0
  139.2547    0.2034   -1.2591 N   0  0  0  0  0  0  0  0  0  0  0  0
  137.7189    0.5322   -3.1697 C   0  0  0  0  0  0  0  0  0  0  0  0
  137.6905    0.7969   -4.6299 C   0  0  0  0  0  0  0  0  0  0  0  0
  138.2764    1.8816   -5.1593 C   0  0  0  0  0  0  0  0  0  0  0  0
  138.2121    2.1988   -6.6301 C   0  0  0  0  0  0  0  0  0  0  0  0
  137.8094    1.0248   -7.4089 N   0  0  0  0  0  0  0  0  0  0  0  0
  137.0783    0.0192   -6.8311 C   0  0  0  0  0  0  0  0  0  0  0  0
  137.0095   -0.1512   -5.4991 C   0  0  0  0  0  0  0  0  0  0  0  0
  136.4977    0.4818   -2.4966 C   0  0  0  0  0  0  0  0  0  0  0  0
  135.2225    0.7683   -3.1271 C   0  0  0  0  0  0  0  0  0  0  0  0
  134.2794    0.5963   -2.1772 C   0  0  0  0  0  0  0  0  0  0  0  0
  134.9782    0.2042   -0.9708 C   0  0  0  0  0  0  0  0  0  0  0  0
  136.3092    0.1656   -1.1853 N   0  0  0  0  0  0  0  0  0  0  0  0
  133.2819   -0.8382    2.8294 H   0  0  0  0  0  0  0  0  0  0  0  0
  135.2003   -1.1536    4.6610 H   0  0  0  0  0  0  0  0  0  0  0  0
  137.0118   -0.2212    0.9623 H   0  0  0  0  0  0  0  0  0  0  0  0
  137.2244   -3.0252    4.8818 H   0  0  0  0  0  0  0  0  0  0  0  0
  138.4611   -3.1889    7.2006 H   0  0  0  0  0  0  0  0  0  0  0  0
  136.6940   -3.0788    7.3121 H   0  0  0  0  0  0  0  0  0  0  0  0
  137.8874   -1.4836    8.7804 H   0  0  0  0  0  0  0  0  0  0  0  0
  138.4622    0.6007    8.0027 H   0  0  0  0  0  0  0  0  0  0  0  0
  138.6402    0.9877    5.5460 H   0  0  0  0  0  0  0  0  0  0  0  0
  140.4792   -0.7169    4.6812 H   0  0  0  0  0  0  0  0  0  0  0  0
  142.3548   -0.2984    2.8045 H   0  0  0  0  0  0  0  0  0  0  0  0
  142.2766    0.1085   -2.5038 H   0  0  0  0  0  0  0  0  0  0  0  0
  140.3578    0.4042   -4.3364 H   0  0  0  0  0  0  0  0  0  0  0  0
  138.5541    0.1626   -0.5265 H   0  0  0  0  0  0  0  0  0  0  0  0
  138.7632    2.6263   -4.5402 H   0  0  0  0  0  0  0  0  0  0  0  0
  137.5094    3.0340   -6.8107 H   0  0  0  0  0  0  0  0  0  0  0  0
  139.1984    2.5229   -6.9896 H   0  0  0  0  0  0  0  0  0  0  0  0
  137.6010    1.2286   -8.3758 H   0  0  0  0  0  0  0  0  0  0  0  0
  136.6306   -0.6765   -7.5336 H   0  0  0  0  0  0  0  0  0  0  0  0
  136.4912   -0.9945   -5.0653 H   0  0  0  0  0  0  0  0  0  0  0  0
  135.0902    1.0760   -4.1520 H   0  0  0  0  0  0  0  0  0  0  0  0
  133.2132    0.7312   -2.2587 H   0  0  0  0  0  0  0  0  0  0  0  0
  145.2800    0.0952    0.1318 C   0  0  0  0  0  0  0  0  0  0  0  0
  145.9584   -0.1924    1.3333 C   0  0  0  0  0  0  0  0  0  0  0  0
  145.3701   -0.4735    2.5922 C   0  0  0  0  0  0  0  0  0  0  0  0
  146.3758   -0.6211    3.5075 C   0  0  0  0  0  0  0  0  0  0  0  0
  147.6130   -0.4490    2.8300 C   0  0  0  0  0  0  0  0  0  0  0  0
  147.3099   -0.1944    1.5182 N   0  0  0  0  0  0  0  0  0  0  0  0
  148.8923   -0.4871    3.3957 C   0  0  0  0  0  0  0  0  0  0  0  0
  148.9638   -0.7538    4.8553 C   0  0  0  0  0  0  0  0  0  0  0  0
  148.5678   -1.9234    5.3785 C   0  0  0  0  0  0  0  0  0  0  0  0
  148.6853   -2.2300    6.8485 C   0  0  0  0  0  0  0  0  0  0  0  0
  148.8673   -1.0045    7.6309 N   0  0  0  0  0  0  0  0  0  0  0  0
  149.4256    0.1103    7.0603 C   0  0  0  0  0  0  0  0  0  0  0  0
  149.4744    0.2924    5.7290 C   0  0  0  0  0  0  0  0  0  0  0  0
  150.0953   -0.3081    2.7117 C   0  0  0  0  0  0  0  0  0  0  0  0
  151.3999   -0.4114    3.3407 C   0  0  0  0  0  0  0  0  0  0  0  0
  152.3119   -0.2532    2.3591 C   0  0  0  0  0  0  0  0  0  0  0  0
  150.2366   -0.0879    1.3764 N   0  0  0  0  0  0  0  0  0  0  0  0
  151.5638   -0.0572    1.1332 C   0  0  0  0  0  0  0  0  0  0  0  0
  152.1776    0.0806   -0.1256 C   0  0  0  0  0  0  0  0  0  0  0  0
  151.5040    0.2457   -1.3497 C   0  0  0  0  0  0  0  0  0  0  0  0
  152.0958    0.3692   -2.6331 C   0  0  0  0  0  0  0  0  0  0  0  0
  151.0917    0.5618   -3.5426 C   0  0  0  0  0  0  0  0  0  0  0  0
  149.8572    0.5713   -2.8382 C   0  0  0  0  0  0  0  0  0  0  0  0
  150.1559    0.3595   -1.5189 N   0  0  0  0  0  0  0  0  0  0  0  0
  148.5787    0.7714   -3.3720 C   0  0  0  0  0  0  0  0  0  0  0  0
  148.5070    1.0715   -4.8236 C   0  0  0  0  0  0  0  0  0  0  0  0
  149.0942    2.1584   -5.3472 C   0  0  0  0  0  0  0  0  0  0  0  0
  148.9895    2.5086   -6.8082 C   0  0  0  0  0  0  0  0  0  0  0  0
  148.5512    1.3556   -7.5989 N   0  0  0  0  0  0  0  0  0  0  0  0
  147.8191    0.3505   -7.0217 C   0  0  0  0  0  0  0  0  0  0  0  0
  147.7845    0.1537   -5.6921 C   0  0  0  0  0  0  0  0  0  0  0  0
  147.3801    0.7174   -2.6590 C   0  0  0  0  0  0  0  0  0  0  0  0
  146.0883    1.0284   -3.2416 C   0  0  0  0  0  0  0  0  0  0  0  0
  145.1748    0.8410   -2.2663 C   0  0  0  0  0  0  0  0  0  0  0  0
  145.9075    0.4197   -1.0904 C   0  0  0  0  0  0  0  0  0  0  0  0
  147.2308    0.3770   -1.3480 N   0  0  0  0  0  0  0  0  0  0  0  0
  144.3109   -0.5440    2.7725 H   0  0  0  0  0  0  0  0  0  0  0  0
  146.2723   -0.8235    4.5609 H   0  0  0  0  0  0  0  0  0  0  0  0
  147.9954   -0.0246    0.7897 H   0  0  0  0  0  0  0  0  0  0  0  0
  148.2112   -2.7357    4.7559 H   0  0  0  0  0  0  0  0  0  0  0  0
  149.5275   -2.9246    7.0282 H   0  0  0  0  0  0  0  0  0  0  0  0
  147.7733   -2.7277    7.2049 H   0  0  0  0  0  0  0  0  0  0  0  0
  149.0963   -1.1706    8.6003 H   0  0  0  0  0  0  0  0  0  0  0  0
  149.7450    0.8699    7.7668 H   0  0  0  0  0  0  0  0  0  0  0  0
  149.8486    1.2106    5.2990 H   0  0  0  0  0  0  0  0  0  0  0  0
  151.5720   -0.5958    4.3890 H   0  0  0  0  0  0  0  0  0  0  0  0
  153.3878   -0.2751    2.4305 H   0  0  0  0  0  0  0  0  0  0  0  0
  153.1546    0.3164   -2.8284 H   0  0  0  0  0  0  0  0  0  0  0  0
  151.1939    0.6805   -4.6089 H   0  0  0  0  0  0  0  0  0  0  0  0
  149.4708    0.3037   -0.7729 H   0  0  0  0  0  0  0  0  0  0  0  0
  149.6119    2.8814   -4.7276 H   0  0  0  0  0  0  0  0  0  0  0  0
  148.2906    3.3546   -6.9496 H   0  0  0  0  0  0  0  0  0  0  0  0
  149.9680    2.8302   -7.1903 H   0  0  0  0  0  0  0  0  0  0  0  0
  148.3232    1.5805   -8.5566 H   0  0  0  0  0  0  0  0  0  0  0  0
  147.3405   -0.3233   -7.7252 H   0  0  0  0  0  0  0  0  0  0  0  0
  147.2643   -0.6898   -5.2610 H   0  0  0  0  0  0  0  0  0  0  0  0
  145.9257    1.3614   -4.2541 H   0  0  0  0  0  0  0  0  0  0  0  0
  144.1089    0.9914   -2.3096 H   0  0  0  0  0  0  0  0  0  0  0  0
  1  2  4  0  0  0  0
  2  3  4  0  0  0  0
  3  4  2  0  0  0  0
  4  5  4  0  0  0  0
  2  6  4  0  0  0  0
  5  6  4  0  0  0  0
  5  7  4  0  0  0  0
  7  8  1  0  0  0  0
  8  9  2  0  0  0  0
  9 10  1  0  0  0  0
 10 11  1  0  0  0  0
 11 12  1  0  0  0  0
  8 13  1  0  0  0  0
 12 13  2  0  0  0  0
  7 14  4  0  0  0  0
 14 15  1  0  0  0  0
 15 16  2  0  0  0  0
 14 17  4  0  0  0  0
 16 18  1  0  0  0  0
 17 18  4  0  0  0  0
 18 19  4  0  0  0  0
 19 20  4  0  0  0  0
 20 21  4  0  0  0  0
 21 22  2  0  0  0  0
 22 23  4  0  0  0  0
 20 24  4  0  0  0  0
 23 24  4  0  0  0  0
 23 25  4  0  0  0  0
 25 26  1  0  0  0  0
 26 27  2  0  0  0  0
 27 28  1  0  0  0  0
 28 29  1  0  0  0  0
 29 30  1  0  0  0  0
 26 31  1  0  0  0  0
 30 31  2  0  0  0  0
 25 32  4  0  0  0  0
 32 33  1  0  0  0  0
 33 34  2  0  0  0  0
  1 35  4  0  0  0  0
 34 35  1  0  0  0  0
 32 36  4  0  0  0  0
 35 36  4  0  0  0  0
  1 37  1  0  0  0  0
  3 38  1  0  0  0  0
  4 39  1  0  0  0  0
  6 40  1  0  0  0  0
  9 41  1  0  0  0  0
 10 42  1  0  0  0  0
 10 43  1  0  0  0  0
 11 44  1  0  0  0  0
 12 45  1  0  0  0  0
 13 46  1  0  0  0  0
 15 47  1  0  0  0  0
 16 48  1  0  0  0  0
 21 49  1  0  0  0  0
 22 50  1  0  0  0  0
 24 51  1  0  0  0  0
 27 52  1  0  0  0  0
 28 53  1  0  0  0  0
 28 54  1  0  0  0  0
 29 55  1  0  0  0  0
 30 56  1  0  0  0  0
 31 57  1  0  0  0  0
 33 58  1  0  0  0  0
 34 59  1  0  0  0  0
 60 61  4  0  0  0  0
 61 62  4  0  0  0  0
 62 63  2  0  0  0  0
 63 64  4  0  0  0  0
 61 65  4  0  0  0  0
 64 65  4  0  0  0  0
 64 66  4  0  0  0  0
 66 67  1  0  0  0  0
 67 68  2  0  0  0  0
 68 69  1  0  0  0  0
 69 70  1  0  0  0  0
 70 71  1  0  0  0  0
 67 72  1  0  0  0  0
 71 72  2  0  0  0  0
 66 73  4  0  0  0  0
 73 74  1  0  0  0  0
 74 75  2  0  0  0  0
 73 76  4  0  0  0  0
 75 77  1  0  0  0  0
 76 77  4  0  0  0  0
 77 78  4  0  0  0  0
 78 79  4  0  0  0  0
 79 80  4  0  0  0  0
 80 81  2  0  0  0  0
 81 82  4  0  0  0  0
 79 83  4  0  0  0  0
 82 83  4  0  0  0  0
 82 84  4  0  0  0  0
 84 85  1  0  0  0  0
 85 86  2  0  0  0  0
 86 87  1  0  0  0  0
 87 88  1  0  0  0  0
 88 89  1  0  0  0  0
 85 90  1  0  0  0  0
 89 90  2  0  0  0  0
 84 91  4  0  0  0  0
 91 92  1  0  0  0  0
 92 93  2  0  0  0  0
 60 94  4  0  0  0  0
 93 94  1  0  0  0  0
 91 95  4  0  0  0  0
 94 95  4  0  0  0  0
 60 96  1  0  0  0  0
 62 97  1  0  0  0  0
 63 98  1  0  0  0  0
 65 99  1  0  0  0  0
 68100  1  0  0  0  0
 69101  1  0  0  0  0
 69102  1  0  0  0  0
 70103  1  0  0  0  0
 71104  1  0  0  0  0
 72105  1  0  0  0  0
 74106  1  0  0  0  0
 75107  1  0  0  0  0
 80108  1  0  0  0  0
 81109  1  0  0  0  0
 83110  1  0  0  0  0
 86111  1  0  0  0  0
 87112  1  0  0  0  0
 87113  1  0  0  0  0
 88114  1  0  0  0  0
 89115  1  0  0  0  0
 90116  1  0  0  0  0
 92117  1  0  0  0  0
 93118  1  0  0  0  0
 19119  4  0  0  0  0
119120  3  0  0  0  0
121122  3  0  0  0  0
123124  3  0  0  0  0
125126  3  0  0  0  0
127128  3  0  0  0  0
 78130  1  0  0  0  0
129130  3  0  0  0  0
120131  4  0  0  0  0
131132  4  0  0  0  0
132133  4  0  0  0  0
133134  2  0  0  0  0
134135  4  0  0  0  0
132136  4  0  0  0  0
135136  4  0  0  0  0
135137  4  0  0  0  0
137138  1  0  0  0  0
138139  2  0  0  0  0
139140  1  0  0  0  0
140141  1  0  0  0  0
141142  1  0  0  0  0
138143  1  0  0  0  0
142143  2  0  0  0  0
137144  4  0  0  0  0
144145  1  0  0  0  0
145146  2  0  0  0  0
144147  4  0  0  0  0
146148  1  0  0  0  0
147148  4  0  0  0  0
121149  4  0  0  0  0
148149  4  0  0  0  0
149150  4  0  0  0  0
150151  4  0  0  0  0
151152  2  0  0  0  0
152153  4  0  0  0  0
150154  4  0  0  0  0
153154  4  0  0  0  0
153155  4  0  0  0  0
155156  1  0  0  0  0
156157  2  0  0  0  0
157158  1  0  0  0  0
158159  1  0  0  0  0
159160  1  0  0  0  0
156161  1  0  0  0  0
160161  2  0  0  0  0
155162  4  0  0  0  0
162163  1  0  0  0  0
163164  2  0  0  0  0
131165  4  0  0  0  0
164165  1  0  0  0  0
162166  4  0  0  0  0
165166  4  0  0  0  0
133167  1  0  0  0  0
134168  1  0  0  0  0
136169  1  0  0  0  0
139170  1  0  0  0  0
140171  1  0  0  0  0
140172  1  0  0  0  0
141173  1  0  0  0  0
142174  1  0  0  0  0
143175  1  0  0  0  0
145176  1  0  0  0  0
146177  1  0  0  0  0
151178  1  0  0  0  0
152179  1  0  0  0  0
154180  1  0  0  0  0
157181  1  0  0  0  0
158182  1  0  0  0  0
158183  1  0  0  0  0
159184  1  0  0  0  0
160185  1  0  0  0  0
161186  1  0  0  0  0
163187  1  0  0  0  0
164188  1  0  0  0  0
122189  4  0  0  0  0
189190  4  0  0  0  0
190191  4  0  0  0  0
191192  2  0  0  0  0
192193  4  0  0  0  0
190194  4  0  0  0  0
193194  4  0  0  0  0
193195  4  0  0  0  0
195196  1  0  0  0  0
196197  2  0  0  0  0
197198  1  0  0  0  0
198199  1  0  0  0  0
199200  1  0  0  0  0
196201  1  0  0  0  0
200201  2  0  0  0  0
195202  4  0  0  0  0
202203  1  0  0  0  0
203204  2  0  0  0  0
202205  4  0  0  0  0
204206  1  0  0  0  0
205206  4  0  0  0  0
123207  4  0  0  0  0
206207  4  0  0  0  0
207208  4  0  0  0  0
208209  4  0  0  0  0
209210  2  0  0  0  0
210211  4  0  0  0  0
208212  4  0  0  0  0
211212  4  0  0  0  0
211213  4  0  0  0  0
213214  1  0  0  0  0
214215  2  0  0  0  0
215216  1  0  0  0  0
216217  1  0  0  0  0
217218  1  0  0  0  0
214219  1  0  0  0  0
218219  2  0  0  0  0
213220  4  0  0  0  0
220221  1  0  0  0  0
221222  2  0  0  0  0
189223  4  0  0  0  0
222223  1  0  0  0  0
220224  4  0  0  0  0
223224  4  0  0  0  0
191225  1  0  0  0  0
192226  1  0  0  0  0
194227  1  0  0  0  0
197228  1  0  0  0  0
198229  1  0  0  0  0
198230  1  0  0  0  0
199231  1  0  0  0  0
200232  1  0  0  0  0
201233  1  0  0  0  0
203234  1  0  0  0  0
204235  1  0  0  0  0
209236  1  0  0  0  0
210237  1  0  0  0  0
212238  1  0  0  0  0
215239  1  0  0  0  0
216240  1  0  0  0  0
216241  1  0  0  0  0
217242  1  0  0  0  0
218243  1  0  0  0  0
219244  1  0  0  0  0
221245  1  0  0  0  0
222246  1  0  0  0  0
124247  4  0  0  0  0
247248  4  0  0  0  0
248249  4  0  0  0  0
249250  2  0  0  0  0
250251  4  0  0  0  0
248252  4  0  0  0  0
251252  4  0  0  0  0
251253  4  0  0  0  0
253254  1  0  0  0  0
254255  2  0  0  0  0
255256  1  0  0  0  0
256257  1  0  0  0  0
257258  1  0  0  0  0
254259  1  0  0  0  0
258259  2  0  0  0  0
253260  4  0  0  0  0
260261  1  0  0  0  0
261262  2  0  0  0  0
260263  4  0  0  0  0
262264  1  0  0  0  0
263264  4  0  0  0  0
125265  4  0  0  0  0
264265  4  0  0  0  0
265266  4  0  0  0  0
266267  4  0  0  0  0
267268  2  0  0  0  0
268269  4  0  0  0  0
266270  4  0  0  0  0
269270  4  0  0  0  0
269271  4  0  0  0  0
271272  1  0  0  0  0
272273  2  0  0  0  0
273274  1  0  0  0  0
274275  1  0  0  0  0
275276  1  0  0  0  0
272277  1  0  0  0  0
276277  2  0  0  0  0
271278  4  0  0  0  0
278279  1  0  0  0  0
279280  2  0  0  0  0
247281  4  0  0  0  0
280281  1  0  0  0  0
278282  4  0  0  0  0
281282  4  0  0  0  0
249283  1  0  0  0  0
250284  1  0  0  0  0
252285  1  0  0  0  0
255286  1  0  0  0  0
256287  1  0  0  0  0
256288  1  0  0  0  0
257289  1  0  0  0  0
258290  1  0  0  0  0
259291  1  0  0  0  0
261292  1  0  0  0  0
262293  1  0  0  0  0
267294  1  0  0  0  0
268295  1  0  0  0  0
270296  1  0  0  0  0
273297  1  0  0  0  0
274298  1  0  0  0  0
274299  1  0  0  0  0
275300  1  0  0  0  0
276301  1  0  0  0  0
277302  1  0  0  0  0
279303  1  0  0  0  0
280304  1  0  0  0  0
126305  4  0  0  0  0
305306  4  0  0  0  0
306307  4  0  0  0  0
307308  2  0  0  0  0
308309  4  0  0  0  0
306310  4  0  0  0  0
309310  4  0  0  0  0
309311  4  0  0  0  0
311312  1  0  0  0  0
312313  2  0  0  0  0
313314  1  0  0  0  0
314315  1  0  0  0  0
315316  1  0  0  0  0
312317  1  0  0  0  0
316317  2  0  0  0  0
311318  4  0  0  0  0
318319  1  0  0  0  0
319320  2  0  0  0  0
318321  4  0  0  0  0
320322  1  0  0  0  0
321322  4  0  0  0  0
127323  4  0  0  0  0
322323  4  0  0  0  0
323324  4  0  0  0  0
324325  4  0  0  0  0
325326  2  0  0  0  0
326327  4  0  0  0  0
324328  4  0  0  0  0
327328  4  0  0  0  0
327329  4  0  0  0  0
329330  1  0  0  0  0
330331  2  0  0  0  0
331332  1  0  0  0  0
332333  1  0  0  0  0
333334  1  0  0  0  0
330335  1  0  0  0  0
334335  2  0  0  0  0
329336  4  0  0  0  0
336337  1  0  0  0  0
337338  2  0  0  0  0
305339  4  0  0  0  0
338339  1  0  0  0  0
336340  4  0  0  0  0
339340  4  0  0  0  0
307341  1  0  0  0  0
308342  1  0  0  0  0
310343  1  0  0  0  0
313344  1  0  0  0  0
314345  1  0  0  0  0
314346  1  0  0  0  0
315347  1  0  0  0  0
316348  1  0  0  0  0
317349  1  0  0  0  0
319350  1  0  0  0  0
320351  1  0  0  0  0
325352  1  0  0  0  0
326353  1  0  0  0  0
328354  1  0  0  0  0
331355  1  0  0  0  0
332356  1  0  0  0  0
332357  1  0  0  0  0
333358  1  0  0  0  0
334359  1  0  0  0  0
335360  1  0  0  0  0
337361  1  0  0  0  0
338362  1  0  0  0  0
128363  4  0  0  0  0
363364  4  0  0  0  0
364365  4  0  0  0  0
365366  2  0  0  0  0
366367  4  0  0  0  0
364368  4  0  0  0  0
367368  4  0  0  0  0
367369  4  0  0  0  0
369370  1  0  0  0  0
370371  2  0  0  0  0
371372  1  0  0  0  0
372373  1  0  0  0  0
373374  1  0  0  0  0
370375  1  0  0  0  0
374375  2  0  0  0  0
369376  4  0  0  0  0
376377  1  0  0  0  0
377378  2  0  0  0  0
376379  4  0  0  0  0
378380  1  0  0  0  0
379380  4  0  0  0  0
129381  4  0  0  0  0
380381  4  0  0  0  0
381382  4  0  0  0  0
382383  4  0  0  0  0
383384  2  0  0  0  0
384385  4  0  0  0  0
382386  4  0  0  0  0
385386  4  0  0  0  0
385387  4  0  0  0  0
387388  1  0  0  0  0
388389  2  0  0  0  0
389390  1  0  0  0  0
390391  1  0  0  0  0
391392  1  0  0  0  0
388393  1  0  0  0  0
392393  2  0  0  0  0
387394  4  0  0  0  0
394395  1  0  0  0  0
395396  2  0  0  0  0
363397  4  0  0  0  0
396397  1  0  0  0  0
394398  4  0  0  0  0
397398  4  0  0  0  0
365399  1  0  0  0  0
366400  1  0  0  0  0
368401  1  0  0  0  0
371402  1  0  0  0  0
372403  1  0  0  0  0
372404  1  0  0  0  0
373405  1  0  0  0  0
374406  1  0  0  0  0
375407  1  0  0  0  0
377408  1  0  0  0  0
378409  1  0  0  0  0
383410  1  0  0  0  0
384411  1  0  0  0  0
386412  1  0  0  0  0
389413  1  0  0  0  0
390414  1  0  0  0  0
390415  1  0  0  0  0
391416  1  0  0  0  0
392417  1  0  0  0  0
393418  1  0  0  0  0
395419  1  0  0  0  0
396420  1  0  0  0  0
M  END
