181

Fe 29.497635 0.028549 -0.022858
C 26.167350 -0.122181 -0.172655
C 26.833472 -1.279244 -0.139478
C 26.184381 -2.584531 -0.128140
C 27.124116 -3.504850 -0.024914
C 28.428692 -2.829707 0.027801
N 28.250905 -1.414685 -0.047928
C 29.617380 -3.450108 0.175518
C 29.652354 -4.925182 0.288519
C 29.459736 -5.726324 -0.847514
C 29.485491 -7.119646 -0.736805
C 29.708249 -7.722612 0.509074
O 29.734045 -9.109678 0.631714
C 29.905550 -6.925073 1.641742
C 29.876357 -5.531459 1.534037
C 30.912804 -2.721478 0.238655
C 32.206795 -3.376966 0.465685
C 33.141916 -2.450701 0.422460
N 31.052299 -1.443073 0.056098
C 32.454783 -1.192075 0.160070
C 33.051546 -0.001143 -0.018989
C 32.296359 1.244185 -0.296016
C 32.852879 2.371214 -0.720586
C 31.808524 3.373390 -0.783609
C 30.680388 2.795065 -0.391521
N 30.896951 1.420050 -0.066060
C 29.382739 3.506438 -0.258070
C 29.391996 4.987894 -0.207909
C 30.006997 5.649948 0.866621
C 30.024779 7.046604 0.916181
C 29.437631 7.793257 -0.109401
O 29.457271 9.183989 -0.043034
C 28.836590 7.136297 -1.193146
C 28.815116 5.739886 -1.243152
C 28.214131 2.843363 -0.172008
C 26.891600 3.445106 -0.010456
C 26.032043 2.445287 0.001019
C 26.795864 1.207416 -0.139388
N 28.069214 1.426434 -0.241686
H 25.084190 -0.154631 -0.199033
H 25.120988 -2.780781 -0.177283
H 26.936188 -4.569682 0.022756
H 29.286639 -5.270817 -1.815043
H 29.331951 -7.729164 -1.618339
H 29.588189 -9.714518 -0.168754
H 30.079578 -7.386008 2.606136
H 30.028377 -4.924867 2.418559
H 32.387295 -4.430861 0.632599
H 34.202596 -2.625051 0.548038
H 33.895895 2.532049 -0.956704
H 31.935519 4.406154 -1.079651
H 30.463147 5.083758 1.668626
H 30.490527 7.549224 1.755329
H 29.033919 9.753399 -0.767410
H 28.387681 7.706623 -1.996082
H 28.352150 5.243708 -2.088498
H 26.639105 4.492635 0.086588
H 24.959066 2.538910 0.106914
Fe 59.664488 -0.031082 -0.018558
C 62.994773 0.096597 -0.188431
C 62.328651 1.246448 -0.321606
C 62.977742 2.539858 -0.497661
C 62.038007 3.465466 -0.527546
C 60.733431 2.804871 -0.378510
N 60.911218 1.393624 -0.250436
C 59.544743 3.440047 -0.321333
C 59.509769 4.916073 -0.421137
C 59.702388 5.545934 -1.660360
C 59.676632 6.940725 -1.750703
C 59.453874 7.716205 -0.604223
O 59.428078 9.106516 -0.681861
C 59.256573 7.089425 0.631152
C 59.285766 5.694777 0.724510
C 58.249319 2.728014 -0.154310
C 56.955328 3.409293 -0.023674
C 56.020207 2.486409 0.066443
N 58.109824 1.436642 -0.151559
C 56.707341 1.203159 -0.012651
C 56.110577 -0.001143 -0.018989
C 56.865764 -1.273332 -0.114478
C 56.309244 -2.449616 -0.372954
C 57.353599 -3.450466 -0.291539
C 58.481735 -2.821869 0.013517
N 58.265172 -1.414385 0.138331
C 59.779384 -3.506735 0.247652
C 59.770127 -4.965668 0.509845
C 59.155126 -5.466704 1.668246
C 59.137344 -6.841800 1.917678
C 59.724492 -7.727873 1.009832
O 59.704852 -9.094694 1.275047
C 60.325534 -7.233200 -0.156957
C 60.347007 -5.858411 -0.406796
C 60.947992 -2.838173 0.237690
C 62.270523 -3.410511 0.483905
C 63.130081 -2.419391 0.351812
C 62.366259 -1.214471 0.035255
N 61.092909 -1.445901 -0.034561
H 64.077933 0.124927 -0.219192
H 64.041135 2.727027 -0.574453
H 62.225935 4.526120 -0.633145
H 59.875484 4.956324 -2.552525
H 59.830172 7.417459 -2.710566
H 59.573934 9.590251 -1.560827
H 59.082545 7.683958 1.519436
H 59.133746 5.221368 1.686911
H 56.774828 4.476233 -0.009694
H 54.959527 2.676973 0.165707
H 55.266228 -2.642664 -0.583554
H 57.226605 -4.515020 -0.436343
H 58.698977 -4.791305 2.380720
H 58.671596 -7.218823 2.820258
H 60.128204 -9.762143 0.639862
H 60.774442 -7.912826 -0.869759
H 60.809973 -5.488651 -1.314584
H 62.523018 -4.433280 0.730238
H 64.203057 -2.496851 0.470044
C 36.845779 0.011589 -0.016464
C 35.593508 -0.007592 -0.020813
C 38.159447 0.010823 -0.014532
C 39.662581 -0.007592 -0.020813
C 50.837883 0.011589 -0.016464
C 49.585612 -0.007592 -0.020813
C 52.151551 0.010823 -0.014532
C 53.654685 -0.007592 -0.020813
Fe 44.556966 0.022434 -0.032338
C 41.135372 0.003391 0.041566
C 41.792313 0.983769 0.689188
C 41.152895 2.037992 1.479672
C 42.092634 2.844387 1.932862
C 43.389470 2.354734 1.458210
N 43.209400 1.173528 0.673311
C 44.574094 2.950233 1.705860
C 44.604866 4.208567 2.480475
C 44.907167 4.184406 3.853592
C 44.949678 5.377587 4.582698
C 44.698267 6.600577 3.944197
O 44.747294 7.782202 4.681184
C 44.399571 6.626026 2.570890
C 44.352829 5.434155 1.841367
C 45.872825 2.410037 1.234413
C 47.142845 3.140596 1.328753
C 48.096357 2.351557 0.876345
N 46.040509 1.220336 0.745202
C 47.440956 1.108006 0.490874
C 48.057062 0.003391 0.041566
C 47.307673 -1.211490 -0.346397
C 47.846807 -2.417911 -0.471599
C 46.813277 -3.298089 -0.982190
C 45.714055 -2.567759 -1.137450
N 45.935851 -1.215354 -0.740879
C 44.455822 -3.063379 -1.747713
C 44.518665 -4.260184 -2.622004
C 43.841542 -5.440866 -2.267895
C 43.907674 -6.565556 -3.097116
C 44.651237 -6.521511 -4.285252
O 44.720157 -7.633348 -5.121577
C 45.332296 -5.350329 -4.635819
C 45.271274 -4.225226 -3.806596
C 43.280580 -2.432662 -1.554004
C 42.003732 -2.787357 -2.168737
C 41.115466 -1.945908 -1.680429
C 41.813196 -1.045538 -0.754487
N 43.079250 -1.322173 -0.678389
H 40.096700 2.163575 1.674964
H 41.910577 3.714777 2.551046
H 45.106359 3.243852 4.356923
H 45.179993 5.352590 5.643118
H 44.559749 8.683642 4.245000
H 44.206170 7.567564 2.068438
H 44.125522 5.464408 0.780653
H 47.291691 4.146121 1.702053
H 49.147152 2.603938 0.819216
H 48.873639 -2.692699 -0.267634
H 46.931265 -4.345326 -1.229498
H 43.265358 -5.487716 -1.351055
H 43.380153 -7.469155 -2.816096
H 44.252987 -8.501758 -4.885826
H 45.909574 -5.311804 -5.551123
H 45.801850 -3.324590 -4.091725
H 41.799908 -3.568967 -2.890118
H 40.064880 -1.935021 -1.940610
