 xtb: 6.5.1 (b24c23e)
          07302202543D

118137  0     0  0            999 V2000
   15.2210   -0.0535   -0.0352 Ni  0  0  0  0  0  0  0  0  0  0  0  0
   11.8358   -0.0722   -0.1538 C   0  0  0  0  0  0  0  0  0  0  0  0
   12.4877   -1.2808   -0.0156 C   0  0  0  0  0  0  0  0  0  0  0  0
   11.8175   -2.5363    0.1303 C   0  0  0  0  0  0  0  0  0  0  0  0
   12.7766   -3.4923    0.1215 C   0  0  0  0  0  0  0  0  0  0  0  0
   14.0317   -2.8215   -0.0512 C   0  0  0  0  0  0  0  0  0  0  0  0
   13.8467   -1.4610   -0.0814 N   0  0  0  0  0  0  0  0  0  0  0  0
   15.2437   -3.4695   -0.2552 C   0  0  0  0  0  0  0  0  0  0  0  0
   15.2627   -4.9479   -0.3486 C   0  0  0  0  0  0  0  0  0  0  0  0
   14.5627   -5.6051   -1.2857 C   0  0  0  0  0  0  0  0  0  0  0  0
   14.5541   -7.1084   -1.3834 C   0  0  0  0  0  0  0  0  0  0  0  0
   15.6644   -7.6950   -0.6282 N   0  0  0  0  0  0  0  0  0  0  0  0
   16.2180   -7.0240    0.4313 C   0  0  0  0  0  0  0  0  0  0  0  0
   16.0830   -5.6960    0.5936 C   0  0  0  0  0  0  0  0  0  0  0  0
   16.4432   -2.7796   -0.3847 C   0  0  0  0  0  0  0  0  0  0  0  0
   17.6957   -3.4044   -0.6822 C   0  0  0  0  0  0  0  0  0  0  0  0
   18.6420   -2.4364   -0.6170 C   0  0  0  0  0  0  0  0  0  0  0  0
   16.6174   -1.4288   -0.1861 N   0  0  0  0  0  0  0  0  0  0  0  0
   17.9677   -1.2239   -0.2798 C   0  0  0  0  0  0  0  0  0  0  0  0
   18.6282   -0.0296    0.0205 C   0  0  0  0  0  0  0  0  0  0  0  0
   17.9416    1.1513    0.3165 C   0  0  0  0  0  0  0  0  0  0  0  0
   18.5869    2.3657    0.7000 C   0  0  0  0  0  0  0  0  0  0  0  0
   17.6234    3.3167    0.7641 C   0  0  0  0  0  0  0  0  0  0  0  0
   16.3907    2.6808    0.4124 C   0  0  0  0  0  0  0  0  0  0  0  0
   16.5917    1.3376    0.1888 N   0  0  0  0  0  0  0  0  0  0  0  0
   15.1886    3.3579    0.2466 C   0  0  0  0  0  0  0  0  0  0  0  0
   15.1828    4.8335    0.3788 C   0  0  0  0  0  0  0  0  0  0  0  0
   14.4350    5.4559    1.3023 C   0  0  0  0  0  0  0  0  0  0  0  0
   14.4056    6.9553    1.4448 C   0  0  0  0  0  0  0  0  0  0  0  0
   15.5318    7.5780    0.7435 N   0  0  0  0  0  0  0  0  0  0  0  0
   16.1375    6.9421   -0.3089 C   0  0  0  0  0  0  0  0  0  0  0  0
   16.0304    5.6168   -0.5091 C   0  0  0  0  0  0  0  0  0  0  0  0
   13.9990    2.7009   -0.0424 C   0  0  0  0  0  0  0  0  0  0  0  0
   12.7506    3.3623   -0.2849 C   0  0  0  0  0  0  0  0  0  0  0  0
   11.8082    2.3959   -0.3948 C   0  0  0  0  0  0  0  0  0  0  0  0
   12.4823    1.1445   -0.2307 C   0  0  0  0  0  0  0  0  0  0  0  0
   13.8304    1.3383   -0.0601 N   0  0  0  0  0  0  0  0  0  0  0  0
   10.7528   -0.0783   -0.1959 H   0  0  0  0  0  0  0  0  0  0  0  0
   10.7496   -2.6517    0.2285 H   0  0  0  0  0  0  0  0  0  0  0  0
   12.6570   -4.5588    0.2227 H   0  0  0  0  0  0  0  0  0  0  0  0
   13.9527   -5.0832   -2.0138 H   0  0  0  0  0  0  0  0  0  0  0  0
   14.6548   -7.4202   -2.4318 H   0  0  0  0  0  0  0  0  0  0  0  0
   13.5909   -7.5090   -1.0150 H   0  0  0  0  0  0  0  0  0  0  0  0
   15.6137   -8.6998   -0.5431 H   0  0  0  0  0  0  0  0  0  0  0  0
   16.8416   -7.6323    1.0787 H   0  0  0  0  0  0  0  0  0  0  0  0
   16.5691   -5.1754    1.4063 H   0  0  0  0  0  0  0  0  0  0  0  0
   17.8240   -4.4493   -0.9133 H   0  0  0  0  0  0  0  0  0  0  0  0
   19.7039   -2.5229   -0.7797 H   0  0  0  0  0  0  0  0  0  0  0  0
   19.6420    2.4641    0.8962 H   0  0  0  0  0  0  0  0  0  0  0  0
   17.7283    4.3572    1.0249 H   0  0  0  0  0  0  0  0  0  0  0  0
   13.8004    4.9065    1.9880 H   0  0  0  0  0  0  0  0  0  0  0  0
   14.4697    7.2355    2.5051 H   0  0  0  0  0  0  0  0  0  0  0  0
   13.4498    7.3567    1.0588 H   0  0  0  0  0  0  0  0  0  0  0  0
   15.4678    8.5836    0.6809 H   0  0  0  0  0  0  0  0  0  0  0  0
   16.7758    7.5758   -0.9162 H   0  0  0  0  0  0  0  0  0  0  0  0
   16.5563    5.1242   -1.3146 H   0  0  0  0  0  0  0  0  0  0  0  0
   12.6247    4.4301   -0.3617 H   0  0  0  0  0  0  0  0  0  0  0  0
   10.7489    2.5017   -0.5682 H   0  0  0  0  0  0  0  0  0  0  0  0
   26.0694    0.0598   -0.0228 Ni  0  0  0  0  0  0  0  0  0  0  0  0
   29.4546    0.1035   -0.1347 C   0  0  0  0  0  0  0  0  0  0  0  0
   28.8026    1.2543    0.2596 C   0  0  0  0  0  0  0  0  0  0  0  0
   29.4729    2.4492    0.6715 C   0  0  0  0  0  0  0  0  0  0  0  0
   28.5138    3.3849    0.8681 C   0  0  0  0  0  0  0  0  0  0  0  0
   27.2587    2.7667    0.5555 C   0  0  0  0  0  0  0  0  0  0  0  0
   27.4437    1.4445    0.2341 N   0  0  0  0  0  0  0  0  0  0  0  0
   26.0467    3.4435    0.4954 C   0  0  0  0  0  0  0  0  0  0  0  0
   26.0276    4.9075    0.7215 C   0  0  0  0  0  0  0  0  0  0  0  0
   26.7276    5.7504   -0.0527 C   0  0  0  0  0  0  0  0  0  0  0  0
   26.7362    7.2397    0.1745 C   0  0  0  0  0  0  0  0  0  0  0  0
   25.6260    7.6505    1.0382 N   0  0  0  0  0  0  0  0  0  0  0  0
   25.0725    6.7677    1.9289 C   0  0  0  0  0  0  0  0  0  0  0  0
   25.2074    5.4359    1.8024 C   0  0  0  0  0  0  0  0  0  0  0  0
   24.8471    2.7974    0.2209 C   0  0  0  0  0  0  0  0  0  0  0  0
   23.5947    3.4715    0.0645 C   0  0  0  0  0  0  0  0  0  0  0  0
   22.6484    2.5120   -0.0796 C   0  0  0  0  0  0  0  0  0  0  0  0
   24.6730    1.4355    0.1249 N   0  0  0  0  0  0  0  0  0  0  0  0
   23.3226    1.2554   -0.0105 C   0  0  0  0  0  0  0  0  0  0  0  0
   22.6621    0.0245    0.0264 C   0  0  0  0  0  0  0  0  0  0  0  0
   23.3488   -1.1924    0.0620 C   0  0  0  0  0  0  0  0  0  0  0  0
   22.7035   -2.4609    0.1758 C   0  0  0  0  0  0  0  0  0  0  0  0
   23.6669   -3.4034    0.0343 C   0  0  0  0  0  0  0  0  0  0  0  0
   24.8996   -2.7069   -0.1727 C   0  0  0  0  0  0  0  0  0  0  0  0
   24.6987   -1.3469   -0.1028 N   0  0  0  0  0  0  0  0  0  0  0  0
   26.1018   -3.3325   -0.4799 C   0  0  0  0  0  0  0  0  0  0  0  0
   26.1076   -4.8022   -0.6675 C   0  0  0  0  0  0  0  0  0  0  0  0
   26.8553   -5.6083    0.1010 C   0  0  0  0  0  0  0  0  0  0  0  0
   26.8847   -7.1033   -0.0817 C   0  0  0  0  0  0  0  0  0  0  0  0
   25.7586   -7.5609   -0.9004 N   0  0  0  0  0  0  0  0  0  0  0  0
   25.1530   -6.7140   -1.7918 C   0  0  0  0  0  0  0  0  0  0  0  0
   25.2601   -5.3766   -1.7029 C   0  0  0  0  0  0  0  0  0  0  0  0
   27.2914   -2.6288   -0.6211 C   0  0  0  0  0  0  0  0  0  0  0  0
   28.5398   -3.2228   -0.9998 C   0  0  0  0  0  0  0  0  0  0  0  0
   29.4822   -2.2554   -0.8997 C   0  0  0  0  0  0  0  0  0  0  0  0
   28.8081   -1.0683   -0.4710 C   0  0  0  0  0  0  0  0  0  0  0  0
   27.4600   -1.2942   -0.3459 N   0  0  0  0  0  0  0  0  0  0  0  0
   30.5376    0.1186   -0.1745 H   0  0  0  0  0  0  0  0  0  0  0  0
   30.5408    2.5410    0.7921 H   0  0  0  0  0  0  0  0  0  0  0  0
   28.6334    4.4048    1.1959 H   0  0  0  0  0  0  0  0  0  0  0  0
   27.3375    5.3970   -0.8760 H   0  0  0  0  0  0  0  0  0  0  0  0
   26.6354    7.7693   -0.7824 H   0  0  0  0  0  0  0  0  0  0  0  0
   27.6994    7.5518    0.6202 H   0  0  0  0  0  0  0  0  0  0  0  0
   25.6767    8.6136    1.3369 H   0  0  0  0  0  0  0  0  0  0  0  0
   24.4490    7.2228    2.6919 H   0  0  0  0  0  0  0  0  0  0  0  0
   24.7214    4.7529    2.4845 H   0  0  0  0  0  0  0  0  0  0  0  0
   23.4663    4.5416    0.0631 H   0  0  0  0  0  0  0  0  0  0  0  0
   21.5865    2.6315   -0.2198 H   0  0  0  0  0  0  0  0  0  0  0  0
   21.6483   -2.5991    0.3463 H   0  0  0  0  0  0  0  0  0  0  0  0
   23.5620   -4.4756    0.0656 H   0  0  0  0  0  0  0  0  0  0  0  0
   27.4898   -5.2188    0.8887 H   0  0  0  0  0  0  0  0  0  0  0  0
   26.8205   -7.6045    0.8938 H   0  0  0  0  0  0  0  0  0  0  0  0
   27.8405   -7.4126   -0.5447 H   0  0  0  0  0  0  0  0  0  0  0  0
   25.8225   -8.5297   -1.1774 H   0  0  0  0  0  0  0  0  0  0  0  0
   24.5147   -7.2026   -2.5211 H   0  0  0  0  0  0  0  0  0  0  0  0
   24.7343   -4.7226   -2.3839 H   0  0  0  0  0  0  0  0  0  0  0  0
   28.6657   -4.2492   -1.3040 H   0  0  0  0  0  0  0  0  0  0  0  0
   30.5415   -2.3215   -1.0918 H   0  0  0  0  0  0  0  0  0  0  0  0
   20.0372   -0.0143    0.0297 C   0  0  0  0  0  0  0  0  0  0  0  0
   21.2532    0.0076    0.0321 C   0  0  0  0  0  0  0  0  0  0  0  0
  2  3  4  0  0  0  0
  3  4  4  0  0  0  0
  4  5  2  0  0  0  0
  5  6  4  0  0  0  0
  1  7  1  0  0  0  0
  3  7  4  0  0  0  0
  6  7  4  0  0  0  0
  6  8  4  0  0  0  0
  8  9  1  0  0  0  0
  9 10  2  0  0  0  0
 10 11  1  0  0  0  0
 11 12  1  0  0  0  0
 12 13  1  0  0  0  0
  9 14  1  0  0  0  0
 13 14  2  0  0  0  0
  8 15  4  0  0  0  0
 15 16  4  0  0  0  0
 16 17  2  0  0  0  0
  1 18  1  0  0  0  0
 15 18  4  0  0  0  0
 17 19  4  0  0  0  0
 18 19  4  0  0  0  0
 19 20  4  0  0  0  0
 20 21  4  0  0  0  0
 21 22  4  0  0  0  0
 22 23  2  0  0  0  0
 23 24  4  0  0  0  0
  1 25  1  0  0  0  0
 21 25  4  0  0  0  0
 24 25  4  0  0  0  0
 24 26  4  0  0  0  0
 26 27  1  0  0  0  0
 27 28  2  0  0  0  0
 28 29  1  0  0  0  0
 29 30  1  0  0  0  0
 30 31  1  0  0  0  0
 27 32  1  0  0  0  0
 31 32  2  0  0  0  0
 26 33  4  0  0  0  0
 33 34  4  0  0  0  0
 34 35  2  0  0  0  0
  2 36  4  0  0  0  0
 35 36  4  0  0  0  0
  1 37  1  0  0  0  0
 33 37  4  0  0  0  0
 36 37  4  0  0  0  0
  2 38  1  0  0  0  0
  4 39  1  0  0  0  0
  5 40  1  0  0  0  0
 10 41  1  0  0  0  0
 11 42  1  0  0  0  0
 11 43  1  0  0  0  0
 12 44  1  0  0  0  0
 13 45  1  0  0  0  0
 14 46  1  0  0  0  0
 16 47  1  0  0  0  0
 17 48  1  0  0  0  0
 22 49  1  0  0  0  0
 23 50  1  0  0  0  0
 28 51  1  0  0  0  0
 29 52  1  0  0  0  0
 29 53  1  0  0  0  0
 30 54  1  0  0  0  0
 31 55  1  0  0  0  0
 32 56  1  0  0  0  0
 34 57  1  0  0  0  0
 35 58  1  0  0  0  0
 60 61  4  0  0  0  0
 61 62  4  0  0  0  0
 62 63  2  0  0  0  0
 63 64  4  0  0  0  0
 59 65  1  0  0  0  0
 61 65  4  0  0  0  0
 64 65  4  0  0  0  0
 64 66  4  0  0  0  0
 66 67  1  0  0  0  0
 67 68  2  0  0  0  0
 68 69  1  0  0  0  0
 69 70  1  0  0  0  0
 70 71  1  0  0  0  0
 67 72  1  0  0  0  0
 71 72  2  0  0  0  0
 66 73  4  0  0  0  0
 73 74  4  0  0  0  0
 74 75  2  0  0  0  0
 59 76  1  0  0  0  0
 73 76  4  0  0  0  0
 75 77  4  0  0  0  0
 76 77  4  0  0  0  0
 77 78  4  0  0  0  0
 78 79  4  0  0  0  0
 79 80  4  0  0  0  0
 80 81  2  0  0  0  0
 81 82  4  0  0  0  0
 59 83  1  0  0  0  0
 79 83  4  0  0  0  0
 82 83  4  0  0  0  0
 82 84  4  0  0  0  0
 84 85  1  0  0  0  0
 85 86  2  0  0  0  0
 86 87  1  0  0  0  0
 87 88  1  0  0  0  0
 88 89  1  0  0  0  0
 85 90  1  0  0  0  0
 89 90  2  0  0  0  0
 84 91  4  0  0  0  0
 91 92  4  0  0  0  0
 92 93  2  0  0  0  0
 60 94  4  0  0  0  0
 93 94  4  0  0  0  0
 59 95  1  0  0  0  0
 91 95  4  0  0  0  0
 94 95  4  0  0  0  0
 60 96  1  0  0  0  0
 62 97  1  0  0  0  0
 63 98  1  0  0  0  0
 68 99  1  0  0  0  0
 69100  1  0  0  0  0
 69101  1  0  0  0  0
 70102  1  0  0  0  0
 71103  1  0  0  0  0
 72104  1  0  0  0  0
 74105  1  0  0  0  0
 75106  1  0  0  0  0
 80107  1  0  0  0  0
 81108  1  0  0  0  0
 86109  1  0  0  0  0
 87110  1  0  0  0  0
 87111  1  0  0  0  0
 88112  1  0  0  0  0
 89113  1  0  0  0  0
 90114  1  0  0  0  0
 92115  1  0  0  0  0
 93116  1  0  0  0  0
 20117  4  0  0  0  0
 78118  4  0  0  0  0
117118  3  0  0  0  0
M  END
