714

C 122.900612 0.070140 0.114459
C 123.629875 -1.296373 -0.066596
C 123.026715 -2.533232 -0.093390
C 124.048892 -3.488403 -0.330828
C 125.241520 -2.800657 -0.448243
N 124.980382 -1.470743 -0.232182
C 126.660855 -3.416338 -0.794259
C 126.692558 -4.804891 -1.305987
C 126.487768 -5.056440 -2.669343
C 126.479109 -6.366093 -3.150117
C 126.674703 -7.421731 -2.255302
S 126.569748 -9.094253 -2.820369
O 125.982551 -9.097707 -4.145192
O 125.438127 -9.745476 -1.866323
O 127.825890 -9.754389 -2.540964
C 126.890529 -7.185793 -0.893924
C 126.901422 -5.873377 -0.423149
C 127.792164 -2.673958 -0.662675
C 129.093700 -3.190037 -1.033988
C 129.997052 -2.239869 -0.822687
N 127.990930 -1.394482 -0.217172
C 129.321562 -1.073967 -0.288284
C 129.990166 0.062652 0.042126
C 129.213212 1.298401 0.662945
C 129.748410 2.265900 1.490372
C 128.723139 3.203608 1.769396
C 127.589084 2.777757 1.110920
N 127.882116 1.588299 0.486956
C 126.182867 3.510945 1.092441
C 126.163967 4.967813 1.343737
C 126.541545 5.856392 0.328627
C 126.576944 7.228966 0.573174
C 126.229346 7.706748 1.840914
S 126.393501 9.435095 2.179594
O 125.332684 10.138308 1.494243
O 127.796172 9.834639 1.480651
O 126.628002 9.598020 3.599992
C 125.841341 6.834055 2.861211
C 125.808409 5.462915 2.606605
C 125.055308 2.801262 0.832329
C 123.736473 3.406778 0.783599
C 122.848574 2.451990 0.521824
C 123.566370 1.208411 0.384728
N 124.887415 1.471012 0.569179
H 121.823407 0.091120 0.000333
H 121.971550 -2.723688 0.029070
H 123.923335 -4.555925 -0.427945
H 125.678735 -0.731931 -0.196901
H 126.330740 -4.215880 -3.343131
H 126.310153 -6.543459 -4.208401
H 124.562936 -9.516764 -2.241059
H 127.046509 -8.007117 -0.199973
H 127.066540 -5.662179 0.632054
H 129.304549 -4.169022 -1.425815
H 131.049484 -2.343832 -1.014138
H 130.766610 2.300067 1.848001
H 128.804736 4.090099 2.379674
H 127.201292 0.991055 0.024618
H 126.813756 5.459351 -0.647932
H 126.878353 7.905993 -0.221427
H 128.521823 9.515838 2.055972
H 125.577734 7.200085 3.849579
H 125.516325 4.760368 3.385602
H 123.509576 4.447290 0.930065
H 121.786006 2.579003 0.420870
C 294.311893 0.017837 0.099395
C 293.582629 1.271312 0.672925
C 294.185789 2.332945 1.308122
C 293.163612 3.268084 1.615114
C 291.970984 2.748149 1.149874
N 292.232122 1.507045 0.625454
C 290.551650 3.453557 1.184346
C 290.519947 4.901583 1.489584
C 290.724736 5.839766 0.468884
C 290.733395 7.204513 0.758367
C 290.537801 7.622481 2.077596
S 290.642756 9.339344 2.488710
O 291.229953 10.046942 1.368677
O 291.774377 9.383346 3.642988
O 289.386614 9.749736 3.076438
C 290.321975 6.698570 3.104925
C 290.311082 5.336801 2.805506
C 289.420341 2.754916 0.900900
C 288.118804 3.389436 0.860972
C 287.215452 2.472436 0.534508
N 289.221574 1.434483 0.597601
C 287.890942 1.200894 0.366901
C 287.222338 0.062652 0.042126
C 287.999292 -1.314003 -0.089456
C 287.464094 -2.573396 0.096601
C 288.489365 -3.515867 -0.165886
C 289.623421 -2.805010 -0.496979
N 289.330388 -1.465882 -0.392681
C 291.029637 -3.416050 -0.902610
C 291.048537 -4.783400 -1.464720
C 290.670959 -4.995917 -2.796957
C 290.635560 -6.288297 -3.319946
C 290.983158 -7.367198 -2.500548
S 290.819003 -9.010917 -3.133060
O 291.879820 -9.241864 -4.087459
O 289.416332 -8.977486 -3.937447
O 290.584502 -9.904394 -2.016917
C 291.371163 -7.170891 -1.172367
C 291.404095 -5.874376 -0.658659
C 292.157196 -2.676731 -0.745393
C 293.476032 -3.163567 -1.108732
C 294.363930 -2.215808 -0.822553
C 293.646134 -1.089815 -0.277187
N 292.325089 -1.410297 -0.260670
H 295.389097 0.060774 -0.008407
H 295.240954 2.429087 1.513126
H 293.289169 4.223725 2.100690
H 291.533769 0.862648 0.262356
H 290.881764 5.486362 -0.548779
H 290.902351 7.917609 -0.043454
H 292.649568 9.388993 3.204007
H 290.165995 7.024959 4.129430
H 290.145964 4.596694 3.586722
H 287.907955 4.426860 1.049894
H 286.163020 2.662306 0.427685
H 286.445894 -2.792553 0.381271
H 288.407768 -4.591161 -0.120624
H 290.011212 -0.714214 -0.466518
H 290.398748 -4.140268 -3.412728
H 290.334151 -6.438959 -4.352930
H 288.690681 -9.013537 -3.280692
H 291.634770 -8.006562 -0.530102
H 291.696179 -5.693803 0.374686
H 293.702929 -4.122585 -1.538153
H 295.426498 -2.269666 -0.975600
C 132.255565 0.077342 0.052402
C 133.713792 0.055505 0.034528
C 134.847720 0.034752 0.033037
C 136.209101 0.022162 0.030846
C 137.483320 0.032468 0.026081
C 138.671783 0.051267 0.019925
C 140.024143 0.076051 0.035793
C 141.124411 0.077342 0.052402
C 150.219127 0.077342 0.052402
C 151.677353 0.055505 0.034528
C 152.811281 0.034752 0.033037
C 154.172663 0.022162 0.030846
C 155.446882 0.032468 0.026081
C 156.635344 0.051267 0.019925
C 157.987705 0.076051 0.035793
C 159.087972 0.077342 0.052402
C 168.182688 0.077342 0.052402
C 169.640914 0.055505 0.034528
C 170.774842 0.034752 0.033037
C 172.136224 0.022162 0.030846
C 173.410443 0.032468 0.026081
C 174.598905 0.051267 0.019925
C 175.951266 0.076051 0.035793
C 177.051534 0.077342 0.052402
C 186.146250 0.077342 0.052402
C 187.604476 0.055505 0.034528
C 188.738404 0.034752 0.033037
C 190.099786 0.022162 0.030846
C 191.374005 0.032468 0.026081
C 192.562467 0.051267 0.019925
C 193.914828 0.076051 0.035793
C 195.015095 0.077342 0.052402
C 204.109811 0.077342 0.052402
C 205.568037 0.055505 0.034528
C 206.701965 0.034752 0.033037
C 208.063347 0.022162 0.030846
C 209.337566 0.032468 0.026081
C 210.526028 0.051267 0.019925
C 211.878389 0.076051 0.035793
C 212.978656 0.077342 0.052402
C 222.073372 0.077342 0.052402
C 223.531599 0.055505 0.034528
C 224.665527 0.034752 0.033037
C 226.026908 0.022162 0.030846
C 227.301127 0.032468 0.026081
C 228.489590 0.051267 0.019925
C 229.841950 0.076051 0.035793
C 230.942218 0.077342 0.052402
C 240.036934 0.077342 0.052402
C 241.495160 0.055505 0.034528
C 242.629088 0.034752 0.033037
C 243.990470 0.022162 0.030846
C 245.264689 0.032468 0.026081
C 246.453151 0.051267 0.019925
C 247.805512 0.076051 0.035793
C 248.905779 0.077342 0.052402
C 258.000495 0.077342 0.052402
C 259.458721 0.055505 0.034528
C 260.592650 0.034752 0.033037
C 261.954031 0.022162 0.030846
C 263.228250 0.032468 0.026081
C 264.416713 0.051267 0.019925
C 265.769073 0.076051 0.035793
C 266.869341 0.077342 0.052402
C 275.964057 0.077342 0.052402
C 277.422283 0.055505 0.034528
C 278.556211 0.034752 0.033037
C 279.917593 0.022162 0.030846
C 281.191812 0.032468 0.026081
C 282.380274 0.051267 0.019925
C 283.732635 0.076051 0.035793
C 284.832902 0.077342 0.052402
C 142.223486 -0.026784 -0.018065
C 143.020664 0.441852 -1.303270
C 142.524148 0.559097 -2.585333
C 143.563839 1.085475 -3.394755
C 144.663024 1.267357 -2.582012
N 144.345817 0.800163 -1.331687
C 146.048834 1.903412 -3.000629
C 146.035183 2.924003 -4.071184
C 146.358534 2.573436 -5.389104
C 146.310613 3.530547 -6.402001
C 145.944671 4.843014 -6.085962
S 145.810185 6.024483 -7.395803
O 145.198656 7.229344 -6.872444
O 144.691155 5.380166 -8.368244
O 147.062614 6.057546 -8.115485
C 145.636552 5.211970 -4.773692
C 145.679250 4.245551 -3.768624
C 147.186576 1.556545 -2.345702
C 148.471941 2.141914 -2.664686
C 149.383414 1.616598 -1.852891
N 147.398566 0.678498 -1.320108
C 148.723443 0.671545 -0.974907
C 149.388884 -0.026784 -0.018065
C 148.594442 -1.029693 0.916456
C 149.101145 -2.148422 1.544919
C 148.062584 -2.688766 2.347379
C 146.951893 -1.889293 2.174259
N 147.264629 -0.928968 1.245311
C 145.562215 -2.036590 2.916391
C 145.568810 -2.651398 4.262451
C 145.164545 -3.982665 4.434563
C 145.150290 -4.554069 5.706310
C 145.550708 -3.786621 6.804755
S 145.421799 -4.485051 8.424549
O 146.424918 -5.517577 8.557069
O 143.967941 -5.193949 8.422819
O 145.304248 -3.403343 9.380760
C 145.970190 -2.462840 6.647932
C 145.980544 -1.899614 5.371579
C 144.424122 -1.560284 2.346146
C 143.136495 -1.626945 3.006928
C 142.226325 -1.078423 2.208990
C 142.887973 -0.634271 0.999525
N 144.213235 -0.946417 1.143393
H 141.521474 0.313003 -2.900247
H 143.509666 1.321309 -4.446321
H 145.001547 0.691008 -0.563622
H 146.643912 1.546218 -5.608643
H 146.555963 3.246776 -7.421932
H 143.810987 5.583099 -7.989983
H 145.355486 6.230338 -4.519558
H 145.434616 4.503988 -2.739273
H 148.667069 2.878705 -3.423335
H 150.429389 1.865611 -1.861317
H 150.110434 -2.521671 1.459166
H 148.126955 -3.551165 2.993706
H 146.605971 -0.272677 0.836184
H 144.850456 -4.556890 3.564591
H 144.824952 -5.583595 5.827406
H 143.291911 -4.496051 8.555782
H 146.276367 -1.860471 7.498937
H 146.295592 -0.867679 5.223963
H 142.939383 -2.039390 3.979387
H 141.180758 -0.984474 2.439614
C 160.187047 -0.026784 -0.018065
C 160.984226 0.441852 -1.303270
C 160.487709 0.559097 -2.585333
C 161.527401 1.085475 -3.394755
C 162.626585 1.267357 -2.582012
N 162.309379 0.800163 -1.331687
C 164.012396 1.903412 -3.000629
C 163.998745 2.924003 -4.071184
C 164.322095 2.573436 -5.389104
C 164.274174 3.530547 -6.402001
C 163.908232 4.843014 -6.085962
S 163.773746 6.024483 -7.395803
O 163.162217 7.229344 -6.872444
O 162.654717 5.380166 -8.368244
O 165.026176 6.057546 -8.115485
C 163.600113 5.211970 -4.773692
C 163.642811 4.245551 -3.768624
C 165.150137 1.556545 -2.345702
C 166.435502 2.141914 -2.664686
C 167.346975 1.616598 -1.852891
N 165.362128 0.678498 -1.320108
C 166.687004 0.671545 -0.974907
C 167.352445 -0.026784 -0.018065
C 166.558004 -1.029693 0.916456
C 167.064706 -2.148422 1.544919
C 166.026146 -2.688766 2.347379
C 164.915455 -1.889293 2.174259
N 165.228191 -0.928968 1.245311
C 163.525776 -2.036590 2.916391
C 163.532372 -2.651398 4.262451
C 163.128106 -3.982665 4.434563
C 163.113852 -4.554069 5.706310
C 163.514269 -3.786621 6.804755
S 163.385360 -4.485051 8.424549
O 164.388480 -5.517577 8.557069
O 161.931503 -5.193949 8.422819
O 163.267810 -3.403343 9.380760
C 163.933751 -2.462840 6.647932
C 163.944106 -1.899614 5.371579
C 162.387683 -1.560284 2.346146
C 161.100057 -1.626945 3.006928
C 160.189887 -1.078423 2.208990
C 160.851534 -0.634271 0.999525
N 162.176797 -0.946417 1.143393
H 159.485035 0.313003 -2.900247
H 161.473227 1.321309 -4.446321
H 162.965109 0.691008 -0.563622
H 164.607473 1.546218 -5.608643
H 164.519525 3.246776 -7.421932
H 161.774549 5.583099 -7.989983
H 163.319047 6.230338 -4.519558
H 163.398178 4.503988 -2.739273
H 166.630630 2.878705 -3.423335
H 168.392951 1.865611 -1.861317
H 168.073996 -2.521671 1.459166
H 166.090516 -3.551165 2.993706
H 164.569533 -0.272677 0.836184
H 162.814017 -4.556890 3.564591
H 162.788513 -5.583595 5.827406
H 161.255472 -4.496051 8.555782
H 164.239928 -1.860471 7.498937
H 164.259153 -0.867679 5.223963
H 160.902945 -2.039390 3.979387
H 159.144319 -0.984474 2.439614
C 178.150609 -0.026784 -0.018065
C 178.947787 0.441852 -1.303270
C 178.451271 0.559097 -2.585333
C 179.490962 1.085475 -3.394755
C 180.590147 1.267357 -2.582012
N 180.272940 0.800163 -1.331687
C 181.975957 1.903412 -3.000629
C 181.962306 2.924003 -4.071184
C 182.285657 2.573436 -5.389104
C 182.237736 3.530547 -6.402001
C 181.871794 4.843014 -6.085962
S 181.737308 6.024483 -7.395803
O 181.125778 7.229344 -6.872444
O 180.618278 5.380166 -8.368244
O 182.989737 6.057546 -8.115485
C 181.563674 5.211970 -4.773692
C 181.606373 4.245551 -3.768624
C 183.113699 1.556545 -2.345702
C 184.399063 2.141914 -2.664686
C 185.310537 1.616598 -1.852891
N 183.325689 0.678498 -1.320108
C 184.650566 0.671545 -0.974907
C 185.316006 -0.026784 -0.018065
C 184.521565 -1.029693 0.916456
C 185.028268 -2.148422 1.544919
C 183.989707 -2.688766 2.347379
C 182.879016 -1.889293 2.174259
N 183.191752 -0.928968 1.245311
C 181.489337 -2.036590 2.916391
C 181.495933 -2.651398 4.262451
C 181.091668 -3.982665 4.434563
C 181.077413 -4.554069 5.706310
C 181.477831 -3.786621 6.804755
S 181.348922 -4.485051 8.424549
O 182.352041 -5.517577 8.557069
O 179.895064 -5.193949 8.422819
O 181.231371 -3.403343 9.380760
C 181.897313 -2.462840 6.647932
C 181.907667 -1.899614 5.371579
C 180.351245 -1.560284 2.346146
C 179.063618 -1.626945 3.006928
C 178.153448 -1.078423 2.208990
C 178.815095 -0.634271 0.999525
N 180.140358 -0.946417 1.143393
H 177.448597 0.313003 -2.900247
H 179.436789 1.321309 -4.446321
H 180.928670 0.691008 -0.563622
H 182.571035 1.546218 -5.608643
H 182.483086 3.246776 -7.421932
H 179.738110 5.583099 -7.989983
H 181.282609 6.230338 -4.519558
H 181.361739 4.503988 -2.739273
H 184.594191 2.878705 -3.423335
H 186.356512 1.865611 -1.861317
H 186.037557 -2.521671 1.459166
H 184.054078 -3.551165 2.993706
H 182.533094 -0.272677 0.836184
H 180.777579 -4.556890 3.564591
H 180.752074 -5.583595 5.827406
H 179.219034 -4.496051 8.555782
H 182.203490 -1.860471 7.498937
H 182.222714 -0.867679 5.223963
H 178.866506 -2.039390 3.979387
H 177.107880 -0.984474 2.439614
C 196.114170 -0.026784 -0.018065
C 196.911349 0.441852 -1.303270
C 196.414832 0.559097 -2.585333
C 197.454524 1.085475 -3.394755
C 198.553708 1.267357 -2.582012
N 198.236502 0.800163 -1.331687
C 199.939518 1.903412 -3.000629
C 199.925867 2.924003 -4.071184
C 200.249218 2.573436 -5.389104
C 200.201297 3.530547 -6.402001
C 199.835355 4.843014 -6.085962
S 199.700869 6.024483 -7.395803
O 199.089340 7.229344 -6.872444
O 198.581840 5.380166 -8.368244
O 200.953299 6.057546 -8.115485
C 199.527236 5.211970 -4.773692
C 199.569934 4.245551 -3.768624
C 201.077260 1.556545 -2.345702
C 202.362625 2.141914 -2.664686
C 203.274098 1.616598 -1.852891
N 201.289251 0.678498 -1.320108
C 202.614127 0.671545 -0.974907
C 203.279568 -0.026784 -0.018065
C 202.485127 -1.029693 0.916456
C 202.991829 -2.148422 1.544919
C 201.953268 -2.688766 2.347379
C 200.842577 -1.889293 2.174259
N 201.155313 -0.928968 1.245311
C 199.452899 -2.036590 2.916391
C 199.459495 -2.651398 4.262451
C 199.055229 -3.982665 4.434563
C 199.040974 -4.554069 5.706310
C 199.441392 -3.786621 6.804755
S 199.312483 -4.485051 8.424549
O 200.315602 -5.517577 8.557069
O 197.858626 -5.193949 8.422819
O 199.194933 -3.403343 9.380760
C 199.860874 -2.462840 6.647932
C 199.871229 -1.899614 5.371579
C 198.314806 -1.560284 2.346146
C 197.027179 -1.626945 3.006928
C 196.117010 -1.078423 2.208990
C 196.778657 -0.634271 0.999525
N 198.103919 -0.946417 1.143393
H 195.412158 0.313003 -2.900247
H 197.400350 1.321309 -4.446321
H 198.892232 0.691008 -0.563622
H 200.534596 1.546218 -5.608643
H 200.446648 3.246776 -7.421932
H 197.701672 5.583099 -7.989983
H 199.246170 6.230338 -4.519558
H 199.325300 4.503988 -2.739273
H 202.557753 2.878705 -3.423335
H 204.320073 1.865611 -1.861317
H 204.001119 -2.521671 1.459166
H 202.017639 -3.551165 2.993706
H 200.496656 -0.272677 0.836184
H 198.741140 -4.556890 3.564591
H 198.715636 -5.583595 5.827406
H 197.182595 -4.496051 8.555782
H 200.167051 -1.860471 7.498937
H 200.186276 -0.867679 5.223963
H 196.830068 -2.039390 3.979387
H 195.071442 -0.984474 2.439614
C 214.077732 -0.026784 -0.018065
C 214.874910 0.441852 -1.303270
C 214.378394 0.559097 -2.585333
C 215.418085 1.085475 -3.394755
C 216.517269 1.267357 -2.582012
N 216.200063 0.800163 -1.331687
C 217.903080 1.903412 -3.000629
C 217.889429 2.924003 -4.071184
C 218.212780 2.573436 -5.389104
C 218.164859 3.530547 -6.402001
C 217.798917 4.843014 -6.085962
S 217.664431 6.024483 -7.395803
O 217.052901 7.229344 -6.872444
O 216.545401 5.380166 -8.368244
O 218.916860 6.057546 -8.115485
C 217.490797 5.211970 -4.773692
C 217.533496 4.245551 -3.768624
C 219.040822 1.556545 -2.345702
C 220.326186 2.141914 -2.664686
C 221.237660 1.616598 -1.852891
N 219.252812 0.678498 -1.320108
C 220.577689 0.671545 -0.974907
C 221.243129 -0.026784 -0.018065
C 220.448688 -1.029693 0.916456
C 220.955390 -2.148422 1.544919
C 219.916830 -2.688766 2.347379
C 218.806139 -1.889293 2.174259
N 219.118875 -0.928968 1.245311
C 217.416460 -2.036590 2.916391
C 217.423056 -2.651398 4.262451
C 217.018790 -3.982665 4.434563
C 217.004536 -4.554069 5.706310
C 217.404953 -3.786621 6.804755
S 217.276045 -4.485051 8.424549
O 218.279164 -5.517577 8.557069
O 215.822187 -5.193949 8.422819
O 217.158494 -3.403343 9.380760
C 217.824436 -2.462840 6.647932
C 217.834790 -1.899614 5.371579
C 216.278368 -1.560284 2.346146
C 214.990741 -1.626945 3.006928
C 214.080571 -1.078423 2.208990
C 214.742218 -0.634271 0.999525
N 216.067481 -0.946417 1.143393
H 213.375719 0.313003 -2.900247
H 215.363911 1.321309 -4.446321
H 216.855793 0.691008 -0.563622
H 218.498158 1.546218 -5.608643
H 218.410209 3.246776 -7.421932
H 215.665233 5.583099 -7.989983
H 217.209732 6.230338 -4.519558
H 217.288862 4.503988 -2.739273
H 220.521314 2.878705 -3.423335
H 222.283635 1.865611 -1.861317
H 221.964680 -2.521671 1.459166
H 219.981200 -3.551165 2.993706
H 218.460217 -0.272677 0.836184
H 216.704702 -4.556890 3.564591
H 216.679197 -5.583595 5.827406
H 215.146157 -4.496051 8.555782
H 218.130613 -1.860471 7.498937
H 218.149837 -0.867679 5.223963
H 214.793629 -2.039390 3.979387
H 213.035003 -0.984474 2.439614
C 232.041293 -0.026784 -0.018065
C 232.838471 0.441852 -1.303270
C 232.341955 0.559097 -2.585333
C 233.381646 1.085475 -3.394755
C 234.480831 1.267357 -2.582012
N 234.163624 0.800163 -1.331687
C 235.866641 1.903412 -3.000629
C 235.852990 2.924003 -4.071184
C 236.176341 2.573436 -5.389104
C 236.128420 3.530547 -6.402001
C 235.762478 4.843014 -6.085962
S 235.627992 6.024483 -7.395803
O 235.016463 7.229344 -6.872444
O 234.508962 5.380166 -8.368244
O 236.880422 6.057546 -8.115485
C 235.454359 5.211970 -4.773692
C 235.497057 4.245551 -3.768624
C 237.004383 1.556545 -2.345702
C 238.289748 2.141914 -2.664686
C 239.201221 1.616598 -1.852891
N 237.216373 0.678498 -1.320108
C 238.541250 0.671545 -0.974907
C 239.206691 -0.026784 -0.018065
C 238.412249 -1.029693 0.916456
C 238.918952 -2.148422 1.544919
C 237.880391 -2.688766 2.347379
C 236.769700 -1.889293 2.174259
N 237.082436 -0.928968 1.245311
C 235.380022 -2.036590 2.916391
C 235.386618 -2.651398 4.262451
C 234.982352 -3.982665 4.434563
C 234.968097 -4.554069 5.706310
C 235.368515 -3.786621 6.804755
S 235.239606 -4.485051 8.424549
O 236.242725 -5.517577 8.557069
O 233.785748 -5.193949 8.422819
O 235.122056 -3.403343 9.380760
C 235.787997 -2.462840 6.647932
C 235.798351 -1.899614 5.371579
C 234.241929 -1.560284 2.346146
C 232.954302 -1.626945 3.006928
C 232.044132 -1.078423 2.208990
C 232.705780 -0.634271 0.999525
N 234.031042 -0.946417 1.143393
H 231.339281 0.313003 -2.900247
H 233.327473 1.321309 -4.446321
H 234.819355 0.691008 -0.563622
H 236.461719 1.546218 -5.608643
H 236.373771 3.246776 -7.421932
H 233.628794 5.583099 -7.989983
H 235.173293 6.230338 -4.519558
H 235.252423 4.503988 -2.739273
H 238.484876 2.878705 -3.423335
H 240.247196 1.865611 -1.861317
H 239.928241 -2.521671 1.459166
H 237.944762 -3.551165 2.993706
H 236.423778 -0.272677 0.836184
H 234.668263 -4.556890 3.564591
H 234.642759 -5.583595 5.827406
H 233.109718 -4.496051 8.555782
H 236.094174 -1.860471 7.498937
H 236.113399 -0.867679 5.223963
H 232.757190 -2.039390 3.979387
H 230.998565 -0.984474 2.439614
C 250.004854 -0.026784 -0.018065
C 250.802033 0.441852 -1.303270
C 250.305516 0.559097 -2.585333
C 251.345208 1.085475 -3.394755
C 252.444392 1.267357 -2.582012
N 252.127186 0.800163 -1.331687
C 253.830203 1.903412 -3.000629
C 253.816552 2.924003 -4.071184
C 254.139902 2.573436 -5.389104
C 254.091981 3.530547 -6.402001
C 253.726039 4.843014 -6.085962
S 253.591553 6.024483 -7.395803
O 252.980024 7.229344 -6.872444
O 252.472524 5.380166 -8.368244
O 254.843983 6.057546 -8.115485
C 253.417920 5.211970 -4.773692
C 253.460618 4.245551 -3.768624
C 254.967944 1.556545 -2.345702
C 256.253309 2.141914 -2.664686
C 257.164783 1.616598 -1.852891
N 255.179935 0.678498 -1.320108
C 256.504811 0.671545 -0.974907
C 257.170252 -0.026784 -0.018065
C 256.375811 -1.029693 0.916456
C 256.882513 -2.148422 1.544919
C 255.843953 -2.688766 2.347379
C 254.733262 -1.889293 2.174259
N 255.045998 -0.928968 1.245311
C 253.343583 -2.036590 2.916391
C 253.350179 -2.651398 4.262451
C 252.945913 -3.982665 4.434563
C 252.931659 -4.554069 5.706310
C 253.332076 -3.786621 6.804755
S 253.203168 -4.485051 8.424549
O 254.206287 -5.517577 8.557069
O 251.749310 -5.193949 8.422819
O 253.085617 -3.403343 9.380760
C 253.751558 -2.462840 6.647932
C 253.761913 -1.899614 5.371579
C 252.205490 -1.560284 2.346146
C 250.917864 -1.626945 3.006928
C 250.007694 -1.078423 2.208990
C 250.669341 -0.634271 0.999525
N 251.994604 -0.946417 1.143393
H 249.302842 0.313003 -2.900247
H 251.291034 1.321309 -4.446321
H 252.782916 0.691008 -0.563622
H 254.425280 1.546218 -5.608643
H 254.337332 3.246776 -7.421932
H 251.592356 5.583099 -7.989983
H 253.136855 6.230338 -4.519558
H 253.215985 4.503988 -2.739273
H 256.448437 2.878705 -3.423335
H 258.210758 1.865611 -1.861317
H 257.891803 -2.521671 1.459166
H 255.908323 -3.551165 2.993706
H 254.387340 -0.272677 0.836184
H 252.631824 -4.556890 3.564591
H 252.606320 -5.583595 5.827406
H 251.073279 -4.496051 8.555782
H 254.057735 -1.860471 7.498937
H 254.076960 -0.867679 5.223963
H 250.720752 -2.039390 3.979387
H 248.962126 -0.984474 2.439614
C 267.968416 -0.026784 -0.018065
C 268.765594 0.441852 -1.303270
C 268.269078 0.559097 -2.585333
C 269.308769 1.085475 -3.394755
C 270.407954 1.267357 -2.582012
N 270.090747 0.800163 -1.331687
C 271.793764 1.903412 -3.000629
C 271.780113 2.924003 -4.071184
C 272.103464 2.573436 -5.389104
C 272.055543 3.530547 -6.402001
C 271.689601 4.843014 -6.085962
S 271.555115 6.024483 -7.395803
O 270.943585 7.229344 -6.872444
O 270.436085 5.380166 -8.368244
O 272.807544 6.057546 -8.115485
C 271.381481 5.211970 -4.773692
C 271.424180 4.245551 -3.768624
C 272.931506 1.556545 -2.345702
C 274.216870 2.141914 -2.664686
C 275.128344 1.616598 -1.852891
N 273.143496 0.678498 -1.320108
C 274.468373 0.671545 -0.974907
C 275.133814 -0.026784 -0.018065
C 274.339372 -1.029693 0.916456
C 274.846075 -2.148422 1.544919
C 273.807514 -2.688766 2.347379
C 272.696823 -1.889293 2.174259
N 273.009559 -0.928968 1.245311
C 271.307144 -2.036590 2.916391
C 271.313740 -2.651398 4.262451
C 270.909475 -3.982665 4.434563
C 270.895220 -4.554069 5.706310
C 271.295638 -3.786621 6.804755
S 271.166729 -4.485051 8.424549
O 272.169848 -5.517577 8.557069
O 269.712871 -5.193949 8.422819
O 271.049178 -3.403343 9.380760
C 271.715120 -2.462840 6.647932
C 271.725474 -1.899614 5.371579
C 270.169052 -1.560284 2.346146
C 268.881425 -1.626945 3.006928
C 267.971255 -1.078423 2.208990
C 268.632903 -0.634271 0.999525
N 269.958165 -0.946417 1.143393
H 267.266404 0.313003 -2.900247
H 269.254596 1.321309 -4.446321
H 270.746477 0.691008 -0.563622
H 272.388842 1.546218 -5.608643
H 272.300893 3.246776 -7.421932
H 269.555917 5.583099 -7.989983
H 271.100416 6.230338 -4.519558
H 271.179546 4.503988 -2.739273
H 274.411999 2.878705 -3.423335
H 276.174319 1.865611 -1.861317
H 275.855364 -2.521671 1.459166
H 273.871885 -3.551165 2.993706
H 272.350901 -0.272677 0.836184
H 270.595386 -4.556890 3.564591
H 270.569882 -5.583595 5.827406
H 269.036841 -4.496051 8.555782
H 272.021297 -1.860471 7.498937
H 272.040521 -0.867679 5.223963
H 268.684313 -2.039390 3.979387
H 266.925688 -0.984474 2.439614
