418

C 86.030505 1.197825 -0.176606
C 86.930107 1.587178 -1.385863
C 86.841079 2.739123 -2.141976
C 87.928274 2.715960 -3.055333
C 88.606854 1.528199 -2.855732
N 88.036751 0.883927 -1.783431
C 89.898957 1.004391 -3.619099
C 89.770903 0.680444 -5.067995
C 90.073747 -0.606824 -5.534674
C 89.840491 -0.981984 -6.861577
C 89.225321 -0.100435 -7.746828
N 88.878856 -0.487071 -9.065292
C 88.006379 -1.653286 -9.091736
C 88.961851 1.202996 -7.309905
C 89.233665 1.583059 -5.987387
C 91.003335 0.730796 -2.867713
C 92.279007 0.364232 -3.448916
C 93.136310 0.125031 -2.462307
N 91.176167 0.718743 -1.507729
C 92.445054 0.304952 -1.196385
C 93.037361 0.059059 -0.000735
C 92.210700 0.133388 1.367061
C 92.743917 0.029826 2.634298
C 91.667972 0.007492 3.557452
C 90.504089 0.077854 2.825266
N 90.841454 0.222437 1.496343
C 89.031687 -0.027945 3.429508
C 88.897544 -0.492719 4.829994
C 88.660975 0.424007 5.860787
C 88.547092 -0.010730 7.185061
C 88.697481 -1.365720 7.518103
N 88.526327 -1.867843 8.822221
C 88.712880 -0.955264 9.935994
C 88.917389 -2.271499 6.471594
C 89.032958 -1.841473 5.145481
C 87.953666 0.258333 2.657419
C 86.582723 0.119316 3.121171
C 85.764920 0.458384 2.126640
C 86.584780 0.818607 0.990265
N 87.885105 0.683016 1.362450
H 84.956813 1.236952 -0.291761
H 86.110984 3.526773 -2.020717
H 88.185484 3.489443 -3.767759
H 88.467947 0.140376 -1.248971
H 90.465606 -1.344471 -4.832321
H 90.120444 -1.981089 -7.172443
H 88.452682 0.302081 -9.543017
H 87.143581 -1.528765 -8.426247
H 87.623474 -1.795402 -10.103964
H 88.543136 -2.569011 -8.814600
H 88.479457 1.914554 -7.970076
H 89.008021 2.594378 -5.664472
H 92.503712 0.326941 -4.494979
H 94.164450 -0.156918 -2.601567
H 93.791564 -0.055822 2.878757
H 91.741713 -0.103425 4.627636
H 90.178452 0.342609 0.731620
H 88.564135 1.483155 5.615795
H 88.353480 0.741345 7.948936
H 89.036892 -2.738269 8.930980
H 87.903437 -0.218900 9.983129
H 89.683915 -0.445211 9.884161
H 88.687342 -1.526246 10.872823
H 88.995727 -3.334982 6.672914
H 89.208771 -2.555635 4.343929
H 86.276739 -0.221354 4.093138
H 84.691361 0.438077 2.149967
C 165.585284 1.205306 0.116895
C 164.685682 1.655758 1.304746
C 164.774710 2.844727 2.001192
C 163.687515 2.868125 2.914543
C 163.008934 1.671737 2.775711
N 163.579038 0.973674 1.737624
C 161.716832 1.187498 3.564772
C 161.844886 0.937786 5.028290
C 161.542042 -0.324037 5.559942
C 161.775298 -0.631111 6.904234
C 162.390468 0.294391 7.743426
N 162.736933 -0.024574 9.079874
C 163.609410 -1.187927 9.165696
C 162.653937 1.573871 7.240668
C 162.382124 1.886066 5.900505
C 160.612453 0.875980 2.828299
C 159.336782 0.539501 3.427423
C 158.479478 0.250348 2.454281
N 160.439622 0.794659 1.470695
C 159.170735 0.365544 1.180836
C 158.578428 0.059059 -0.000735
C 159.405089 0.063610 -1.370541
C 158.871872 -0.104376 -2.630857
C 159.947816 -0.173710 -3.551674
C 161.111700 -0.066139 -2.824023
N 160.774335 0.145957 -1.504191
C 162.584102 -0.202583 -3.422091
C 162.718244 -0.738101 -4.797081
C 162.954814 0.124922 -5.873237
C 163.068697 -0.376715 -7.173644
C 162.918308 -1.746912 -7.437224
N 163.089462 -2.314820 -8.714069
C 162.902909 -1.460167 -9.872886
C 162.698400 -2.598202 -6.345930
C 162.582831 -2.101176 -5.043446
C 163.662123 0.122657 -2.665588
C 165.033066 -0.039805 -3.121656
C 165.850868 0.349487 -2.145690
C 165.031009 0.767135 -1.029142
N 163.730683 0.612759 -1.393936
H 166.658976 1.250249 0.229907
H 165.504805 3.625176 1.839965
H 163.430305 3.676898 3.586639
H 163.147842 0.203860 1.241738
H 161.150183 -1.096507 4.896080
H 161.495345 -1.613082 7.265595
H 163.163107 0.787891 9.516776
H 164.472207 -1.097471 8.494727
H 163.992315 -1.278292 10.183850
H 163.072653 -2.116582 8.935571
H 163.136332 2.318137 7.863731
H 162.607768 2.879621 5.526488
H 159.112076 0.555550 4.474027
H 157.451339 -0.024140 2.607723
H 157.824224 -0.202367 -2.870634
H 159.874076 -0.339003 -4.614818
H 161.437337 0.304932 -0.746584
H 163.051654 1.195176 -5.682521
H 163.262309 0.335468 -7.974841
H 162.578897 -3.189657 -8.778343
H 163.712352 -0.727160 -9.957473
H 161.931874 -0.948136 -9.847105
H 162.928447 -2.078134 -10.779410
H 162.620062 -3.670559 -6.492810
H 162.407018 -2.773576 -4.206553
H 165.339050 -0.429549 -4.075006
H 166.924428 0.328019 -2.167952
C 96.634584 0.071496 0.001707
C 95.382314 0.052315 -0.002641
C 97.948252 0.070730 0.003639
C 99.451386 0.052315 -0.002641
C 110.852608 0.071496 0.001707
C 109.600337 0.052315 -0.002641
C 112.166276 0.070730 0.003639
C 113.669410 0.052315 -0.002641
C 125.070632 0.071496 0.001707
C 123.818361 0.052315 -0.002641
C 126.384300 0.070730 0.003639
C 127.887434 0.052315 -0.002641
C 139.288656 0.071496 0.001707
C 138.036385 0.052315 -0.002641
C 140.602324 0.070730 0.003639
C 142.105457 0.052315 -0.002641
C 153.506679 0.071496 0.001707
C 152.254409 0.052315 -0.002641
C 154.820348 0.070730 0.003639
C 156.323481 0.052315 -0.002641
C 100.940848 -0.033940 0.000573
C 101.716018 0.013326 1.387199
C 101.134911 0.027694 2.639655
C 102.177001 0.065232 3.593560
C 103.370944 0.073604 2.902273
N 103.081872 0.042677 1.558568
C 104.811012 0.109295 3.564288
C 104.872587 0.177562 5.045570
C 104.938146 -0.989926 5.808607
C 104.969277 -0.917533 7.205551
C 104.902610 0.315213 7.874355
N 104.978491 0.318388 9.278640
C 104.498383 1.490720 9.985323
C 104.892160 1.479235 7.095414
C 104.861105 1.413176 5.696821
C 105.938724 0.080491 2.806518
C 107.252572 0.107557 3.415992
C 108.162536 0.063721 2.452127
N 106.133594 0.025311 1.451273
C 107.478280 0.012659 1.175269
C 108.161988 -0.033940 0.000573
C 107.387133 -0.075039 -1.386498
C 107.967960 -0.074785 -2.639528
C 106.925949 -0.113879 -3.593663
C 105.732226 -0.135318 -2.902013
N 106.021610 -0.111138 -1.557995
C 104.292887 -0.177064 -3.562692
C 104.224815 -0.245326 -5.043490
C 104.175244 0.924304 -5.805591
C 104.102285 0.858923 -7.202586
C 104.046171 -0.373022 -7.866735
N 104.015184 -0.502194 -9.267347
C 103.473950 0.601684 -10.038065
C 104.153745 -1.538678 -7.091693
C 104.226203 -1.479618 -5.695851
C 103.164598 -0.149550 -2.804988
C 101.850408 -0.179786 -3.414183
C 100.940125 -0.136239 -2.450701
C 101.624348 -0.081703 -1.174106
N 102.969044 -0.092303 -1.449975
H 100.077645 0.009927 2.854656
H 102.066578 0.081911 4.667721
H 103.769233 0.032959 0.808749
H 104.972945 -1.952479 5.303683
H 105.041949 -1.844562 7.765992
H 104.597369 -0.548319 9.648524
H 103.467272 1.733579 9.707703
H 104.514346 1.290264 11.061646
H 105.143636 2.357558 9.810875
H 104.906500 2.463504 7.548903
H 104.836084 2.323832 5.102412
H 107.468953 0.153543 4.468690
H 109.223900 0.070125 2.619514
H 109.025010 -0.047560 -2.854756
H 107.036481 -0.122824 -4.668298
H 105.334590 -0.109016 -0.807896
H 104.195178 1.886649 -5.299022
H 104.086229 1.796059 -7.746774
H 103.602802 -1.396316 -9.521164
H 104.128499 1.478155 -9.999022
H 103.402143 0.301760 -11.088736
H 102.468344 0.873833 -9.700284
H 104.174041 -2.515145 -7.565689
H 104.284483 -2.391392 -5.106105
H 101.633829 -0.227561 -4.466573
H 99.878759 -0.144516 -2.617655
C 115.158872 -0.033940 0.000573
C 115.934042 0.013326 1.387199
C 115.352935 0.027694 2.639655
C 116.395025 0.065232 3.593560
C 117.588968 0.073604 2.902273
N 117.299896 0.042677 1.558568
C 119.029036 0.109295 3.564288
C 119.090611 0.177562 5.045570
C 119.156170 -0.989926 5.808607
C 119.187301 -0.917533 7.205551
C 119.120634 0.315213 7.874355
N 119.196514 0.318388 9.278640
C 118.716407 1.490720 9.985323
C 119.110184 1.479235 7.095414
C 119.079129 1.413176 5.696821
C 120.156747 0.080491 2.806518
C 121.470596 0.107557 3.415992
C 122.380560 0.063721 2.452127
N 120.351618 0.025311 1.451273
C 121.696304 0.012659 1.175269
C 122.380012 -0.033940 0.000573
C 121.605156 -0.075039 -1.386498
C 122.185983 -0.074785 -2.639528
C 121.143973 -0.113879 -3.593663
C 119.950249 -0.135318 -2.902013
N 120.239634 -0.111138 -1.557995
C 118.510911 -0.177064 -3.562692
C 118.442839 -0.245326 -5.043490
C 118.393268 0.924304 -5.805591
C 118.320309 0.858923 -7.202586
C 118.264195 -0.373022 -7.866735
N 118.233208 -0.502194 -9.267347
C 117.691974 0.601684 -10.038065
C 118.371769 -1.538678 -7.091693
C 118.444227 -1.479618 -5.695851
C 117.382622 -0.149550 -2.804988
C 116.068431 -0.179786 -3.414183
C 115.158149 -0.136239 -2.450701
C 115.842372 -0.081703 -1.174106
N 117.187068 -0.092303 -1.449975
H 114.295669 0.009927 2.854656
H 116.284602 0.081911 4.667721
H 117.987257 0.032959 0.808749
H 119.190969 -1.952479 5.303683
H 119.259973 -1.844562 7.765992
H 118.815393 -0.548319 9.648524
H 117.685296 1.733579 9.707703
H 118.732370 1.290264 11.061646
H 119.361660 2.357558 9.810875
H 119.124524 2.463504 7.548903
H 119.054108 2.323832 5.102412
H 121.686977 0.153543 4.468690
H 123.441924 0.070125 2.619514
H 123.243034 -0.047560 -2.854756
H 121.254505 -0.122824 -4.668298
H 119.552614 -0.109016 -0.807896
H 118.413202 1.886649 -5.299022
H 118.304253 1.796059 -7.746774
H 117.820826 -1.396316 -9.521164
H 118.346523 1.478155 -9.999022
H 117.620167 0.301760 -11.088736
H 116.686368 0.873833 -9.700284
H 118.392064 -2.515145 -7.565689
H 118.502507 -2.391392 -5.106105
H 115.851853 -0.227561 -4.466573
H 114.096783 -0.144516 -2.617655
C 129.376896 -0.033940 0.000573
C 130.152066 0.013326 1.387199
C 129.570959 0.027694 2.639655
C 130.613049 0.065232 3.593560
C 131.806992 0.073604 2.902273
N 131.517919 0.042677 1.558568
C 133.247060 0.109295 3.564288
C 133.308635 0.177562 5.045570
C 133.374194 -0.989926 5.808607
C 133.405325 -0.917533 7.205551
C 133.338658 0.315213 7.874355
N 133.414538 0.318388 9.278640
C 132.934431 1.490720 9.985323
C 133.328207 1.479235 7.095414
C 133.297153 1.413176 5.696821
C 134.374771 0.080491 2.806518
C 135.688620 0.107557 3.415992
C 136.598584 0.063721 2.452127
N 134.569642 0.025311 1.451273
C 135.914328 0.012659 1.175269
C 136.598036 -0.033940 0.000573
C 135.823180 -0.075039 -1.386498
C 136.404007 -0.074785 -2.639528
C 135.361996 -0.113879 -3.593663
C 134.168273 -0.135318 -2.902013
N 134.457658 -0.111138 -1.557995
C 132.728935 -0.177064 -3.562692
C 132.660862 -0.245326 -5.043490
C 132.611292 0.924304 -5.805591
C 132.538332 0.858923 -7.202586
C 132.482218 -0.373022 -7.866735
N 132.451232 -0.502194 -9.267347
C 131.909997 0.601684 -10.038065
C 132.589792 -1.538678 -7.091693
C 132.662251 -1.479618 -5.695851
C 131.600646 -0.149550 -2.804988
C 130.286455 -0.179786 -3.414183
C 129.376173 -0.136239 -2.450701
C 130.060395 -0.081703 -1.174106
N 131.405092 -0.092303 -1.449975
H 128.513693 0.009927 2.854656
H 130.502626 0.081911 4.667721
H 132.205281 0.032959 0.808749
H 133.408993 -1.952479 5.303683
H 133.477997 -1.844562 7.765992
H 133.033417 -0.548319 9.648524
H 131.903319 1.733579 9.707703
H 132.950394 1.290264 11.061646
H 133.579684 2.357558 9.810875
H 133.342548 2.463504 7.548903
H 133.272132 2.323832 5.102412
H 135.905001 0.153543 4.468690
H 137.659948 0.070125 2.619514
H 137.461058 -0.047560 -2.854756
H 135.472528 -0.122824 -4.668298
H 133.770638 -0.109016 -0.807896
H 132.631226 1.886649 -5.299022
H 132.522277 1.796059 -7.746774
H 132.038850 -1.396316 -9.521164
H 132.564547 1.478155 -9.999022
H 131.838191 0.301760 -11.088736
H 130.904391 0.873833 -9.700284
H 132.610088 -2.515145 -7.565689
H 132.720531 -2.391392 -5.106105
H 130.069877 -0.227561 -4.466573
H 128.314807 -0.144516 -2.617655
C 143.594920 -0.033940 0.000573
C 144.370090 0.013326 1.387199
C 143.788983 0.027694 2.639655
C 144.831073 0.065232 3.593560
C 146.025016 0.073604 2.902273
N 145.735943 0.042677 1.558568
C 147.465084 0.109295 3.564288
C 147.526659 0.177562 5.045570
C 147.592218 -0.989926 5.808607
C 147.623349 -0.917533 7.205551
C 147.556682 0.315213 7.874355
N 147.632562 0.318388 9.278640
C 147.152454 1.490720 9.985323
C 147.546231 1.479235 7.095414
C 147.515177 1.413176 5.696821
C 148.592795 0.080491 2.806518
C 149.906643 0.107557 3.415992
C 150.816607 0.063721 2.452127
N 148.787666 0.025311 1.451273
C 150.132352 0.012659 1.175269
C 150.816059 -0.033940 0.000573
C 150.041204 -0.075039 -1.386498
C 150.622031 -0.074785 -2.639528
C 149.580020 -0.113879 -3.593663
C 148.386297 -0.135318 -2.902013
N 148.675682 -0.111138 -1.557995
C 146.946959 -0.177064 -3.562692
C 146.878886 -0.245326 -5.043490
C 146.829316 0.924304 -5.805591
C 146.756356 0.858923 -7.202586
C 146.700242 -0.373022 -7.866735
N 146.669256 -0.502194 -9.267347
C 146.128021 0.601684 -10.038065
C 146.807816 -1.538678 -7.091693
C 146.880275 -1.479618 -5.695851
C 145.818670 -0.149550 -2.804988
C 144.504479 -0.179786 -3.414183
C 143.594197 -0.136239 -2.450701
C 144.278419 -0.081703 -1.174106
N 145.623116 -0.092303 -1.449975
H 142.731717 0.009927 2.854656
H 144.720650 0.081911 4.667721
H 146.423305 0.032959 0.808749
H 147.627017 -1.952479 5.303683
H 147.696021 -1.844562 7.765992
H 147.251441 -0.548319 9.648524
H 146.121343 1.733579 9.707703
H 147.168418 1.290264 11.061646
H 147.797708 2.357558 9.810875
H 147.560572 2.463504 7.548903
H 147.490156 2.323832 5.102412
H 150.123025 0.153543 4.468690
H 151.877972 0.070125 2.619514
H 151.679082 -0.047560 -2.854756
H 149.690552 -0.122824 -4.668298
H 147.988661 -0.109016 -0.807896
H 146.849250 1.886649 -5.299022
H 146.740301 1.796059 -7.746774
H 146.256873 -1.396316 -9.521164
H 146.782571 1.478155 -9.999022
H 146.056215 0.301760 -11.088736
H 145.122415 0.873833 -9.700284
H 146.828112 -2.515145 -7.565689
H 146.938555 -2.391392 -5.106105
H 144.287900 -0.227561 -4.466573
H 142.532831 -0.144516 -2.617655
