178

C 24.276879 -0.008094 -0.054575
C 25.005372 -1.266272 0.510029
C 24.396763 -2.430791 0.919743
C 25.418551 -3.282054 1.414591
C 26.616620 -2.604659 1.296738
N 26.358013 -1.397529 0.697050
C 28.039109 -3.106772 1.786270
C 29.168941 -2.431546 1.441428
C 30.473579 -2.827785 1.930619
C 31.375944 -1.977526 1.455316
N 29.365217 -1.325282 0.656960
C 30.696769 -1.000491 0.626969
C 31.364414 0.002015 -0.004125
C 30.586764 1.034889 -0.924820
C 31.127155 1.770276 -1.961785
C 30.102363 2.603910 -2.474635
C 28.962118 2.346554 -1.743960
C 27.552818 3.052270 -1.927373
C 27.525572 4.390586 -2.560250
C 27.152896 4.535764 -3.902548
C 27.141952 5.797774 -4.499486
C 27.506710 6.922214 -3.757953
C 27.882093 6.785530 -2.420754
C 27.892375 5.523098 -1.824280
C 26.427191 2.430977 -1.488153
C 25.105311 3.019731 -1.611232
C 24.219495 2.167613 -1.103808
C 24.941119 1.012842 -0.627805
N 26.262210 1.220655 -0.873855
N 29.252782 1.352586 -0.839328
C 28.076574 -4.298604 2.667120
C 27.824218 -4.170135 4.038057
C 27.848782 -5.293049 4.867293
C 28.124839 -6.551038 4.329631
C 28.376601 -6.687355 2.963723
C 28.351617 -5.564298 2.134769
H 23.199044 0.040273 0.043552
H 23.338399 -2.637540 0.882675
H 25.291364 -4.268829 1.833743
H 27.059227 -0.708138 0.437272
H 30.684655 -3.659244 2.579222
H 32.429479 -2.027834 1.660678
H 32.149070 1.724345 -2.306016
H 30.186875 3.315618 -3.282033
H 26.868662 3.651917 -4.469732
H 26.847667 5.895888 -5.539381
H 27.497918 7.903777 -4.220909
H 28.167126 7.655137 -1.837320
H 28.183401 5.405794 -0.782637
H 24.877463 3.980310 -2.036958
H 23.155992 2.311937 -1.046012
H 28.569485 0.891185 -0.244382
H 27.611897 -3.184352 4.446265
H 27.653536 -5.178759 5.928698
H 28.145498 -7.423605 4.974706
H 28.594401 -7.661874 2.538766
H 28.549563 -5.657168 1.069096
C 59.845981 -0.039291 -0.034804
C 59.117488 1.008392 -0.931547
C 59.726098 1.876025 -1.809717
C 58.704309 2.686916 -2.368266
C 57.506240 2.291165 -1.806008
N 57.764847 1.233548 -0.970405
C 56.083751 2.948199 -2.051091
C 54.953920 2.348107 -1.587695
C 53.649281 2.959635 -1.737180
C 52.746916 2.166847 -1.171195
N 54.757643 1.166452 -0.922186
C 53.426091 1.000679 -0.641280
C 52.758446 0.002015 -0.004125
C 53.536096 -1.271500 0.536863
C 52.995705 -2.523163 0.759197
C 54.020497 -3.342808 1.294119
C 55.160743 -2.572194 1.373315
C 56.570042 -3.039322 1.933196
C 56.597288 -4.182954 2.873263
C 56.969964 -5.458772 2.431525
C 56.980908 -6.537330 3.317932
C 56.616150 -6.346781 4.651321
C 56.240767 -5.079201 5.098563
C 56.230486 -4.000881 4.211577
C 57.695670 -2.376907 1.558861
C 59.017549 -2.739545 2.038730
C 59.903365 -1.916915 1.484776
C 59.181742 -0.993497 0.643720
N 57.860650 -1.304716 0.726608
N 54.870078 -1.329813 0.860652
C 56.046286 4.253541 -2.752833
C 56.298643 5.438437 -2.051411
C 56.274078 6.667684 -2.712865
C 55.998021 6.718506 -4.079991
C 55.746260 5.541508 -4.786363
C 55.771243 4.312456 -4.124660
H 60.923816 0.028796 0.050825
H 60.784462 1.930764 -2.012505
H 58.831496 3.487207 -3.081673
H 57.063633 0.704332 -0.457886
H 53.438206 3.901114 -2.212183
H 51.693381 2.374032 -1.129021
H 51.973790 -2.814843 0.570711
H 53.935985 -4.376764 1.593042
H 57.254198 -5.594366 1.390134
H 57.275193 -7.519593 2.962729
H 56.624942 -7.184458 5.341315
H 55.955735 -4.922833 6.134015
H 55.939460 -3.008847 4.550173
H 59.245397 -3.534597 2.725642
H 60.966869 -1.926261 1.639961
H 55.553375 -0.594833 0.697388
H 56.510963 5.386753 -0.985704
H 56.469324 7.578723 -2.156403
H 55.977362 7.674343 -4.593674
H 55.528459 5.573237 -5.849034
H 55.573297 3.388412 -4.663574
C 34.722231 0.014746 -0.001600
C 33.469961 -0.004435 -0.005948
C 36.035900 0.013980 0.000332
C 37.539033 -0.004435 -0.005948
C 47.922167 0.014746 -0.001600
C 46.669897 -0.004435 -0.005948
C 49.235835 0.013980 0.000332
C 50.738969 -0.004435 -0.005948
C 38.484476 -0.003468 0.009247
C 39.278128 1.106355 0.815207
C 38.771402 1.931097 1.799100
C 39.808301 2.819796 2.182340
C 40.917742 2.504994 1.426096
N 40.606791 1.414219 0.653296
C 42.307368 3.265107 1.434740
C 43.442176 2.611265 1.071087
C 44.729107 3.272581 1.005149
C 45.637069 2.384294 0.615470
N 43.650207 1.312611 0.696159
C 44.974716 1.111359 0.412982
C 45.638514 -0.003468 0.009247
C 44.844877 -1.359391 -0.197632
C 45.351644 -2.637602 -0.077671
C 44.314742 -3.539099 -0.429750
C 43.205260 -2.783622 -0.746237
C 41.815608 -3.330344 -1.274310
C 41.824734 -4.608564 -2.024138
C 42.302795 -4.648818 -3.339023
C 42.327800 -5.853810 -4.044043
C 41.877012 -7.026732 -3.437016
C 41.402069 -6.996228 -2.125332
C 41.378012 -5.791180 -1.420737
C 40.680810 -2.609645 -1.073397
C 39.393872 -3.033681 -1.585135
C 38.485914 -2.127948 -1.237933
C 39.148274 -1.080203 -0.487215
N 40.472786 -1.422384 -0.427271
N 43.516195 -1.464574 -0.529120
C 42.298122 4.701376 1.799743
C 41.819859 5.654091 0.892723
C 41.794539 7.006761 1.238161
C 42.245216 7.414534 2.494366
C 42.720389 6.471013 3.405951
C 42.744765 5.118598 3.060169
H 37.762970 1.912905 2.183482
H 39.747696 3.613436 2.911810
H 41.267895 0.891609 0.085963
H 44.923745 4.307659 1.222258
H 46.681511 2.595087 0.475757
H 46.360104 -2.894848 0.208421
H 44.375373 -4.616345 -0.468836
H 42.653110 -3.729594 -3.803538
H 42.699543 -5.869423 -5.063568
H 41.895793 -7.962906 -3.985764
H 41.049088 -7.903924 -1.646639
H 41.008511 -5.755165 -0.398078
H 39.199229 -3.922517 -2.158280
H 37.441472 -2.179672 -1.485473
H 42.855070 -0.694082 -0.565217
H 41.469591 5.326631 -0.083779
H 41.422611 7.734362 0.523930
H 42.226153 8.466145 2.762043
H 43.073267 6.780313 4.384455
H 43.114401 4.374277 3.762318
