 xtb: 6.5.1 (b24c23e)
          07302201023D

114133  0     0  0            999 V2000
   15.3611   -0.0439   -0.0542 Co  0  0  0  0  0  0  0  0  0  0  0  0
   11.9859   -0.0745   -0.0619 C   0  0  0  0  0  0  0  0  0  0  0  0
   12.6540   -1.2399   -0.3712 C   0  0  0  0  0  0  0  0  0  0  0  0
   11.9972   -2.4674   -0.7035 C   0  0  0  0  0  0  0  0  0  0  0  0
   12.9552   -3.4232   -0.7365 C   0  0  0  0  0  0  0  0  0  0  0  0
   14.1980   -2.7764   -0.4323 C   0  0  0  0  0  0  0  0  0  0  0  0
   14.0075   -1.4303   -0.2502 N   0  0  0  0  0  0  0  0  0  0  0  0
   15.3855   -3.4516   -0.1841 C   0  0  0  0  0  0  0  0  0  0  0  0
   16.5626   -2.7832    0.1146 C   0  0  0  0  0  0  0  0  0  0  0  0
   17.8145   -3.4380    0.3488 C   0  0  0  0  0  0  0  0  0  0  0  0
   18.7611   -2.4702    0.3847 C   0  0  0  0  0  0  0  0  0  0  0  0
   16.7389   -1.4187    0.0553 N   0  0  0  0  0  0  0  0  0  0  0  0
   18.0881   -1.2291    0.1670 C   0  0  0  0  0  0  0  0  0  0  0  0
   18.7546   -0.0171   -0.0254 C   0  0  0  0  0  0  0  0  0  0  0  0
   18.0655    1.1845   -0.2038 C   0  0  0  0  0  0  0  0  0  0  0  0
   18.7096    2.4359   -0.4472 C   0  0  0  0  0  0  0  0  0  0  0  0
   17.7477    3.3880   -0.3817 C   0  0  0  0  0  0  0  0  0  0  0  0
   16.5184    2.7130   -0.0947 C   0  0  0  0  0  0  0  0  0  0  0  0
   15.3255    3.3592    0.1943 C   0  0  0  0  0  0  0  0  0  0  0  0
   15.3113    4.8376    0.2826 C   0  0  0  0  0  0  0  0  0  0  0  0
   14.5022    5.5894   -0.5707 C   0  0  0  0  0  0  0  0  0  0  0  0
   14.4928    6.9735   -0.4885 C   0  0  0  0  0  0  0  0  0  0  0  0
   15.2847    7.6227    0.4490 C   0  0  0  0  0  0  0  0  0  0  0  0
   16.0909    6.8817    1.3025 C   0  0  0  0  0  0  0  0  0  0  0  0
   16.1083    5.4977    1.2190 C   0  0  0  0  0  0  0  0  0  0  0  0
   14.1430    2.6587    0.3905 C   0  0  0  0  0  0  0  0  0  0  0  0
   12.8897    3.2718    0.7206 C   0  0  0  0  0  0  0  0  0  0  0  0
   11.9466    2.3043    0.6358 C   0  0  0  0  0  0  0  0  0  0  0  0
   12.6270    1.0996    0.2696 C   0  0  0  0  0  0  0  0  0  0  0  0
   13.9801    1.3123    0.1841 N   0  0  0  0  0  0  0  0  0  0  0  0
   16.7180    1.3524   -0.0467 N   0  0  0  0  0  0  0  0  0  0  0  0
   15.3970   -4.9338   -0.2436 C   0  0  0  0  0  0  0  0  0  0  0  0
   15.1831   -5.5935   -1.4539 C   0  0  0  0  0  0  0  0  0  0  0  0
   15.2001   -6.9793   -1.5077 C   0  0  0  0  0  0  0  0  0  0  0  0
   15.4263   -7.7201   -0.3556 C   0  0  0  0  0  0  0  0  0  0  0  0
   15.6374   -7.0697    0.8525 C   0  0  0  0  0  0  0  0  0  0  0  0
   15.6251   -5.6840    0.9101 C   0  0  0  0  0  0  0  0  0  0  0  0
   10.9024   -0.0844   -0.0717 H   0  0  0  0  0  0  0  0  0  0  0  0
   10.9359   -2.5675   -0.8662 H   0  0  0  0  0  0  0  0  0  0  0  0
   12.8410   -4.4779   -0.9271 H   0  0  0  0  0  0  0  0  0  0  0  0
   17.9444   -4.5033    0.4472 H   0  0  0  0  0  0  0  0  0  0  0  0
   19.8239   -2.5736    0.5318 H   0  0  0  0  0  0  0  0  0  0  0  0
   19.7633    2.5555   -0.6400 H   0  0  0  0  0  0  0  0  0  0  0  0
   17.8494    4.4524   -0.5176 H   0  0  0  0  0  0  0  0  0  0  0  0
   13.8929    5.0845   -1.3121 H   0  0  0  0  0  0  0  0  0  0  0  0
   13.8647    7.5480   -1.1603 H   0  0  0  0  0  0  0  0  0  0  0  0
   15.2739    8.7048    0.5140 H   0  0  0  0  0  0  0  0  0  0  0  0
   16.7092    7.3842    2.0381 H   0  0  0  0  0  0  0  0  0  0  0  0
   16.7296    4.9197    1.8941 H   0  0  0  0  0  0  0  0  0  0  0  0
   12.7620    4.3108    0.9779 H   0  0  0  0  0  0  0  0  0  0  0  0
   10.8829    2.3804    0.7965 H   0  0  0  0  0  0  0  0  0  0  0  0
   15.0191   -5.0156   -2.3565 H   0  0  0  0  0  0  0  0  0  0  0  0
   15.0373   -7.4828   -2.4542 H   0  0  0  0  0  0  0  0  0  0  0  0
   15.4384   -8.8032   -0.3993 H   0  0  0  0  0  0  0  0  0  0  0  0
   15.8122   -7.6440    1.7555 H   0  0  0  0  0  0  0  0  0  0  0  0
   15.7789   -5.1769    1.8561 H   0  0  0  0  0  0  0  0  0  0  0  0
   26.1780    0.0463   -0.0521 Co  0  0  0  0  0  0  0  0  0  0  0  0
   29.5532    0.0771   -0.0586 C   0  0  0  0  0  0  0  0  0  0  0  0
   28.8852    1.2549   -0.3170 C   0  0  0  0  0  0  0  0  0  0  0  0
   29.5419    2.4956   -0.5957 C   0  0  0  0  0  0  0  0  0  0  0  0
   28.5839    3.4519   -0.5872 C   0  0  0  0  0  0  0  0  0  0  0  0
   27.3411    2.7925   -0.3114 C   0  0  0  0  0  0  0  0  0  0  0  0
   27.5316    1.4398   -0.1878 N   0  0  0  0  0  0  0  0  0  0  0  0
   26.1536    3.4564   -0.0341 C   0  0  0  0  0  0  0  0  0  0  0  0
   24.9765    2.7757    0.2353 C   0  0  0  0  0  0  0  0  0  0  0  0
   23.7246    3.4196    0.4977 C   0  0  0  0  0  0  0  0  0  0  0  0
   22.7780    2.4512    0.4916 C   0  0  0  0  0  0  0  0  0  0  0  0
   24.8002    1.4150    0.1169 N   0  0  0  0  0  0  0  0  0  0  0  0
   23.4510    1.2207    0.2202 C   0  0  0  0  0  0  0  0  0  0  0  0
   22.7845    0.0182   -0.0247 C   0  0  0  0  0  0  0  0  0  0  0  0
   23.4736   -1.1745   -0.2551 C   0  0  0  0  0  0  0  0  0  0  0  0
   22.8296   -2.4141   -0.5526 C   0  0  0  0  0  0  0  0  0  0  0  0
   23.7914   -3.3682   -0.5285 C   0  0  0  0  0  0  0  0  0  0  0  0
   25.0208   -2.7063   -0.2124 C   0  0  0  0  0  0  0  0  0  0  0  0
   26.2136   -3.3645    0.0482 C   0  0  0  0  0  0  0  0  0  0  0  0
   26.2278   -4.8453    0.0723 C   0  0  0  0  0  0  0  0  0  0  0  0
   27.0369   -5.5593   -0.8128 C   0  0  0  0  0  0  0  0  0  0  0  0
   27.0463   -6.9457   -0.7908 C   0  0  0  0  0  0  0  0  0  0  0  0
   26.2544   -7.6350    0.1175 C   0  0  0  0  0  0  0  0  0  0  0  0
   25.4482   -6.9318    1.0024 C   0  0  0  0  0  0  0  0  0  0  0  0
   25.4308   -5.5454    0.9792 C   0  0  0  0  0  0  0  0  0  0  0  0
   27.3962   -2.6731    0.2747 C   0  0  0  0  0  0  0  0  0  0  0  0
   28.6494   -3.3000    0.5778 C   0  0  0  0  0  0  0  0  0  0  0  0
   29.5925   -2.3297    0.5351 C   0  0  0  0  0  0  0  0  0  0  0  0
   28.9121   -1.1103    0.2216 C   0  0  0  0  0  0  0  0  0  0  0  0
   27.5590   -1.3191    0.1269 N   0  0  0  0  0  0  0  0  0  0  0  0
   24.8212   -1.3491   -0.1053 N   0  0  0  0  0  0  0  0  0  0  0  0
   26.1421    4.9397   -0.0291 C   0  0  0  0  0  0  0  0  0  0  0  0
   26.3560    5.6513   -1.2096 C   0  0  0  0  0  0  0  0  0  0  0  0
   26.3391    7.0382   -1.2032 C   0  0  0  0  0  0  0  0  0  0  0  0
   26.1128    7.7282   -0.0201 C   0  0  0  0  0  0  0  0  0  0  0  0
   25.9018    7.0260    1.1587 C   0  0  0  0  0  0  0  0  0  0  0  0
   25.9141    5.6391    1.1561 C   0  0  0  0  0  0  0  0  0  0  0  0
   30.6368    0.0874   -0.0680 H   0  0  0  0  0  0  0  0  0  0  0  0
   30.6033    2.6027   -0.7539 H   0  0  0  0  0  0  0  0  0  0  0  0
   28.6981    4.5139   -0.7318 H   0  0  0  0  0  0  0  0  0  0  0  0
   23.5947    4.4797    0.6423 H   0  0  0  0  0  0  0  0  0  0  0  0
   21.7152    2.5481    0.6430 H   0  0  0  0  0  0  0  0  0  0  0  0
   21.7758   -2.5253   -0.7504 H   0  0  0  0  0  0  0  0  0  0  0  0
   23.6897   -4.4257   -0.7105 H   0  0  0  0  0  0  0  0  0  0  0  0
   27.6462   -5.0227   -1.5316 H   0  0  0  0  0  0  0  0  0  0  0  0
   27.6744   -7.4905   -1.4870 H   0  0  0  0  0  0  0  0  0  0  0  0
   26.2652   -8.7189    0.1355 H   0  0  0  0  0  0  0  0  0  0  0  0
   24.8300   -7.4657    1.7156 H   0  0  0  0  0  0  0  0  0  0  0  0
   24.8095   -4.9973    1.6787 H   0  0  0  0  0  0  0  0  0  0  0  0
   28.7771   -4.3492    0.7898 H   0  0  0  0  0  0  0  0  0  0  0  0
   30.6562   -2.4128    0.6924 H   0  0  0  0  0  0  0  0  0  0  0  0
   26.5201    5.1132   -2.1365 H   0  0  0  0  0  0  0  0  0  0  0  0
   26.5018    7.5823   -2.1269 H   0  0  0  0  0  0  0  0  0  0  0  0
   26.1007    8.8123   -0.0167 H   0  0  0  0  0  0  0  0  0  0  0  0
   25.7269    7.5606    2.0858 H   0  0  0  0  0  0  0  0  0  0  0  0
   25.7603    5.0915    2.0791 H   0  0  0  0  0  0  0  0  0  0  0  0
   20.1611   -0.0062   -0.0330 C   0  0  0  0  0  0  0  0  0  0  0  0
   21.3780    0.0074   -0.0333 C   0  0  0  0  0  0  0  0  0  0  0  0
  2  3  4  0  0  0  0
  3  4  1  0  0  0  0
  4  5  2  0  0  0  0
  5  6  4  0  0  0  0
  1  7  1  0  0  0  0
  3  7  4  0  0  0  0
  6  7  4  0  0  0  0
  6  8  4  0  0  0  0
  8  9  4  0  0  0  0
  9 10  4  0  0  0  0
 10 11  2  0  0  0  0
  1 12  1  0  0  0  0
  9 12  4  0  0  0  0
 11 13  4  0  0  0  0
 12 13  4  0  0  0  0
 13 14  4  0  0  0  0
 14 15  4  0  0  0  0
 15 16  4  0  0  0  0
 16 17  2  0  0  0  0
 17 18  4  0  0  0  0
 18 19  4  0  0  0  0
 19 20  1  0  0  0  0
 20 21  4  0  0  0  0
 21 22  4  0  0  0  0
 22 23  4  0  0  0  0
 23 24  4  0  0  0  0
 20 25  4  0  0  0  0
 24 25  4  0  0  0  0
 19 26  4  0  0  0  0
 26 27  4  0  0  0  0
 27 28  2  0  0  0  0
  2 29  4  0  0  0  0
 28 29  1  0  0  0  0
  1 30  1  0  0  0  0
 26 30  4  0  0  0  0
 29 30  4  0  0  0  0
  1 31  1  0  0  0  0
 15 31  4  0  0  0  0
 18 31  4  0  0  0  0
  8 32  1  0  0  0  0
 32 33  4  0  0  0  0
 33 34  4  0  0  0  0
 34 35  4  0  0  0  0
 35 36  4  0  0  0  0
 32 37  4  0  0  0  0
 36 37  4  0  0  0  0
  2 38  1  0  0  0  0
  4 39  1  0  0  0  0
  5 40  1  0  0  0  0
 10 41  1  0  0  0  0
 11 42  1  0  0  0  0
 16 43  1  0  0  0  0
 17 44  1  0  0  0  0
 21 45  1  0  0  0  0
 22 46  1  0  0  0  0
 23 47  1  0  0  0  0
 24 48  1  0  0  0  0
 25 49  1  0  0  0  0
 27 50  1  0  0  0  0
 28 51  1  0  0  0  0
 33 52  1  0  0  0  0
 34 53  1  0  0  0  0
 35 54  1  0  0  0  0
 36 55  1  0  0  0  0
 37 56  1  0  0  0  0
 58 59  4  0  0  0  0
 59 60  1  0  0  0  0
 60 61  2  0  0  0  0
 61 62  4  0  0  0  0
 57 63  1  0  0  0  0
 59 63  4  0  0  0  0
 62 63  4  0  0  0  0
 62 64  4  0  0  0  0
 64 65  4  0  0  0  0
 65 66  4  0  0  0  0
 66 67  2  0  0  0  0
 57 68  1  0  0  0  0
 65 68  4  0  0  0  0
 67 69  4  0  0  0  0
 68 69  4  0  0  0  0
 69 70  4  0  0  0  0
 70 71  4  0  0  0  0
 71 72  4  0  0  0  0
 72 73  2  0  0  0  0
 73 74  4  0  0  0  0
 74 75  4  0  0  0  0
 75 76  1  0  0  0  0
 76 77  4  0  0  0  0
 77 78  4  0  0  0  0
 78 79  4  0  0  0  0
 79 80  4  0  0  0  0
 76 81  4  0  0  0  0
 80 81  4  0  0  0  0
 75 82  4  0  0  0  0
 82 83  4  0  0  0  0
 83 84  2  0  0  0  0
 58 85  4  0  0  0  0
 84 85  1  0  0  0  0
 57 86  1  0  0  0  0
 82 86  4  0  0  0  0
 85 86  4  0  0  0  0
 57 87  1  0  0  0  0
 71 87  4  0  0  0  0
 74 87  4  0  0  0  0
 64 88  1  0  0  0  0
 88 89  4  0  0  0  0
 89 90  4  0  0  0  0
 90 91  4  0  0  0  0
 91 92  4  0  0  0  0
 88 93  4  0  0  0  0
 92 93  4  0  0  0  0
 58 94  1  0  0  0  0
 60 95  1  0  0  0  0
 61 96  1  0  0  0  0
 66 97  1  0  0  0  0
 67 98  1  0  0  0  0
 72 99  1  0  0  0  0
 73100  1  0  0  0  0
 77101  1  0  0  0  0
 78102  1  0  0  0  0
 79103  1  0  0  0  0
 80104  1  0  0  0  0
 81105  1  0  0  0  0
 83106  1  0  0  0  0
 84107  1  0  0  0  0
 89108  1  0  0  0  0
 90109  1  0  0  0  0
 91110  1  0  0  0  0
 92111  1  0  0  0  0
 93112  1  0  0  0  0
 14113  1  0  0  0  0
 70114  1  0  0  0  0
113114  3  0  0  0  0
M  END
