 xtb: 6.5.1 (b24c23e)
          07302211183D

171200  0     0  0            999 V2000
   31.3730   -0.0103   -0.0062 Zn  0  0  0  0  0  0  0  0  0  0  0  0
   27.9591   -0.0355    0.0009 C   0  0  0  0  0  0  0  0  0  0  0  0
   28.5881   -1.2735   -0.0576 C   0  0  0  0  0  0  0  0  0  0  0  0
   27.9142   -2.5417   -0.0699 C   0  0  0  0  0  0  0  0  0  0  0  0
   28.8725   -3.5001   -0.1296 C   0  0  0  0  0  0  0  0  0  0  0  0
   30.1443   -2.8278   -0.1661 C   0  0  0  0  0  0  0  0  0  0  0  0
   29.9366   -1.4805   -0.1085 N   0  0  0  0  0  0  0  0  0  0  0  0
   31.3947   -3.4524   -0.2408 C   0  0  0  0  0  0  0  0  0  0  0  0
   32.6336   -2.8014   -0.2399 C   0  0  0  0  0  0  0  0  0  0  0  0
   33.9049   -3.4483   -0.4053 C   0  0  0  0  0  0  0  0  0  0  0  0
   34.8551   -2.4808   -0.3462 C   0  0  0  0  0  0  0  0  0  0  0  0
   32.8361   -1.4539   -0.1014 N   0  0  0  0  0  0  0  0  0  0  0  0
   34.1787   -1.2342   -0.1446 C   0  0  0  0  0  0  0  0  0  0  0  0
   34.8192    0.0153   -0.0065 C   0  0  0  0  0  0  0  0  0  0  0  0
   34.1622    1.2565    0.1252 C   0  0  0  0  0  0  0  0  0  0  0  0
   34.8234    2.5215    0.2461 C   0  0  0  0  0  0  0  0  0  0  0  0
   33.8596    3.4756    0.2990 C   0  0  0  0  0  0  0  0  0  0  0  0
   32.5940    2.8008    0.2276 C   0  0  0  0  0  0  0  0  0  0  0  0
   31.3449    3.4308    0.2274 C   0  0  0  0  0  0  0  0  0  0  0  0
   31.3328    4.9136    0.3206 C   0  0  0  0  0  0  0  0  0  0  0  0
   30.8358    5.6812   -0.7335 C   0  0  0  0  0  0  0  0  0  0  0  0
   30.8292    7.0655   -0.6513 C   0  0  0  0  0  0  0  0  0  0  0  0
   31.3128    7.6996    0.4851 C   0  0  0  0  0  0  0  0  0  0  0  0
   31.8047    6.9429    1.5400 C   0  0  0  0  0  0  0  0  0  0  0  0
   31.8175    5.5583    1.4590 C   0  0  0  0  0  0  0  0  0  0  0  0
   30.1044    2.7880    0.1477 C   0  0  0  0  0  0  0  0  0  0  0  0
   28.8218    3.4388    0.1964 C   0  0  0  0  0  0  0  0  0  0  0  0
   27.8771    2.4674    0.1338 C   0  0  0  0  0  0  0  0  0  0  0  0
   28.5697    1.2118    0.0526 C   0  0  0  0  0  0  0  0  0  0  0  0
   29.9159    1.4395    0.0620 N   0  0  0  0  0  0  0  0  0  0  0  0
   32.8153    1.4528    0.1227 N   0  0  0  0  0  0  0  0  0  0  0  0
   31.4103   -4.9345   -0.3254 C   0  0  0  0  0  0  0  0  0  0  0  0
   30.8105   -5.5936   -1.3994 C   0  0  0  0  0  0  0  0  0  0  0  0
   30.8273   -6.9786   -1.4707 C   0  0  0  0  0  0  0  0  0  0  0  0
   31.4381   -7.7223   -0.4701 C   0  0  0  0  0  0  0  0  0  0  0  0
   32.0362   -7.0745    0.6024 C   0  0  0  0  0  0  0  0  0  0  0  0
   32.0254   -5.6897    0.6744 C   0  0  0  0  0  0  0  0  0  0  0  0
   26.8736   -0.0444    0.0183 H   0  0  0  0  0  0  0  0  0  0  0  0
   26.8438   -2.6705   -0.0299 H   0  0  0  0  0  0  0  0  0  0  0  0
   28.7352   -4.5696   -0.1368 H   0  0  0  0  0  0  0  0  0  0  0  0
   34.0500   -4.5046   -0.5655 H   0  0  0  0  0  0  0  0  0  0  0  0
   35.9214   -2.5962   -0.4471 H   0  0  0  0  0  0  0  0  0  0  0  0
   35.8910    2.6598    0.2836 H   0  0  0  0  0  0  0  0  0  0  0  0
   33.9936    4.5428    0.3713 H   0  0  0  0  0  0  0  0  0  0  0  0
   30.4682    5.1876   -1.6264 H   0  0  0  0  0  0  0  0  0  0  0  0
   30.4460    7.6521   -1.4791 H   0  0  0  0  0  0  0  0  0  0  0  0
   31.3062    8.7819    0.5486 H   0  0  0  0  0  0  0  0  0  0  0  0
   32.1802    7.4332    2.4314 H   0  0  0  0  0  0  0  0  0  0  0  0
   32.1916    4.9686    2.2886 H   0  0  0  0  0  0  0  0  0  0  0  0
   28.6693    4.5029    0.2805 H   0  0  0  0  0  0  0  0  0  0  0  0
   26.8041    2.5789    0.1476 H   0  0  0  0  0  0  0  0  0  0  0  0
   30.3446   -5.0145   -2.1891 H   0  0  0  0  0  0  0  0  0  0  0  0
   30.3621   -7.4796   -2.3125 H   0  0  0  0  0  0  0  0  0  0  0  0
   31.4484   -8.8049   -0.5261 H   0  0  0  0  0  0  0  0  0  0  0  0
   32.5128   -7.6506    1.3879 H   0  0  0  0  0  0  0  0  0  0  0  0
   32.4827   -5.1857    1.5187 H   0  0  0  0  0  0  0  0  0  0  0  0
   53.2450    0.0622    0.0129 Zn  0  0  0  0  0  0  0  0  0  0  0  0
   56.6590    0.0973    0.0148 C   0  0  0  0  0  0  0  0  0  0  0  0
   56.0262    1.3347    0.0096 C   0  0  0  0  0  0  0  0  0  0  0  0
   56.6965    2.6043    0.0478 C   0  0  0  0  0  0  0  0  0  0  0  0
   55.7353    3.5615    0.0303 C   0  0  0  0  0  0  0  0  0  0  0  0
   54.4653    2.8875   -0.0303 C   0  0  0  0  0  0  0  0  0  0  0  0
   54.6770    1.5396   -0.0289 N   0  0  0  0  0  0  0  0  0  0  0  0
   53.2130    3.5111   -0.0756 C   0  0  0  0  0  0  0  0  0  0  0  0
   51.9759    2.8571   -0.0986 C   0  0  0  0  0  0  0  0  0  0  0  0
   50.7024    3.5068   -0.2337 C   0  0  0  0  0  0  0  0  0  0  0  0
   49.7552    2.5348   -0.2143 C   0  0  0  0  0  0  0  0  0  0  0  0
   51.7775    1.5043   -0.0171 N   0  0  0  0  0  0  0  0  0  0  0  0
   50.4354    1.2827   -0.0674 C   0  0  0  0  0  0  0  0  0  0  0  0
   49.7990    0.0264    0.0174 C   0  0  0  0  0  0  0  0  0  0  0  0
   50.4601   -1.2173    0.0935 C   0  0  0  0  0  0  0  0  0  0  0  0
   49.8025   -2.4884    0.1585 C   0  0  0  0  0  0  0  0  0  0  0  0
   50.7691   -3.4411    0.1671 C   0  0  0  0  0  0  0  0  0  0  0  0
   52.0327   -2.7602    0.1240 C   0  0  0  0  0  0  0  0  0  0  0  0
   53.2836   -3.3858    0.0934 C   0  0  0  0  0  0  0  0  0  0  0  0
   53.3009   -4.8713    0.1167 C   0  0  0  0  0  0  0  0  0  0  0  0
   53.8003   -5.5857   -0.9730 C   0  0  0  0  0  0  0  0  0  0  0  0
   53.8134   -6.9724   -0.9566 C   0  0  0  0  0  0  0  0  0  0  0  0
   53.3338   -7.6618    0.1489 C   0  0  0  0  0  0  0  0  0  0  0  0
   52.8390   -6.9582    1.2386 C   0  0  0  0  0  0  0  0  0  0  0  0
   52.8198   -5.5714    1.2235 C   0  0  0  0  0  0  0  0  0  0  0  0
   54.5221   -2.7363    0.0415 C   0  0  0  0  0  0  0  0  0  0  0  0
   55.8066   -3.3848    0.0600 C   0  0  0  0  0  0  0  0  0  0  0  0
   56.7485   -2.4088    0.0395 C   0  0  0  0  0  0  0  0  0  0  0  0
   56.0520   -1.1529    0.0142 C   0  0  0  0  0  0  0  0  0  0  0  0
   54.7066   -1.3848    0.0154 N   0  0  0  0  0  0  0  0  0  0  0  0
   51.8075   -1.4095    0.0803 N   0  0  0  0  0  0  0  0  0  0  0  0
   53.1928    4.9953   -0.1005 C   0  0  0  0  0  0  0  0  0  0  0  0
   53.7858    5.6982   -1.1502 C   0  0  0  0  0  0  0  0  0  0  0  0
   53.7630    7.0849   -1.1674 C   0  0  0  0  0  0  0  0  0  0  0  0
   53.1530    7.7864   -0.1364 C   0  0  0  0  0  0  0  0  0  0  0  0
   52.5621    7.0948    0.9124 C   0  0  0  0  0  0  0  0  0  0  0  0
   52.5788    5.7084    0.9305 C   0  0  0  0  0  0  0  0  0  0  0  0
   57.7445    0.1086    0.0303 H   0  0  0  0  0  0  0  0  0  0  0  0
   57.7666    2.7346    0.0898 H   0  0  0  0  0  0  0  0  0  0  0  0
   55.8694    4.6308    0.0666 H   0  0  0  0  0  0  0  0  0  0  0  0
   50.5541    4.5685   -0.3482 H   0  0  0  0  0  0  0  0  0  0  0  0
   48.6884    2.6514   -0.3085 H   0  0  0  0  0  0  0  0  0  0  0  0
   48.7353   -2.6311    0.1913 H   0  0  0  0  0  0  0  0  0  0  0  0
   50.6381   -4.5109    0.1918 H   0  0  0  0  0  0  0  0  0  0  0  0
   54.1648   -5.0486   -1.8417 H   0  0  0  0  0  0  0  0  0  0  0  0
   54.1987   -7.5172   -1.8114 H   0  0  0  0  0  0  0  0  0  0  0  0
   53.3458   -8.7458    0.1611 H   0  0  0  0  0  0  0  0  0  0  0  0
   52.4665   -7.4920    2.1060 H   0  0  0  0  0  0  0  0  0  0  0  0
   52.4437   -5.0234    2.0803 H   0  0  0  0  0  0  0  0  0  0  0  0
   55.9623   -4.4512    0.0970 H   0  0  0  0  0  0  0  0  0  0  0  0
   57.8218   -2.5176    0.0472 H   0  0  0  0  0  0  0  0  0  0  0  0
   54.2509    5.1523   -1.9635 H   0  0  0  0  0  0  0  0  0  0  0  0
   54.2226    7.6202   -1.9910 H   0  0  0  0  0  0  0  0  0  0  0  0
   53.1376    8.8704   -0.1504 H   0  0  0  0  0  0  0  0  0  0  0  0
   52.0864    7.6380    1.7217 H   0  0  0  0  0  0  0  0  0  0  0  0
   52.1271    5.1699    1.7563 H   0  0  0  0  0  0  0  0  0  0  0  0
   36.2294    0.0228   -0.0076 C   0  0  0  0  0  0  0  0  0  0  0  0
   37.4479    0.0250    0.0016 C   0  0  0  0  0  0  0  0  0  0  0  0
   47.1704    0.0094    0.0268 C   0  0  0  0  0  0  0  0  0  0  0  0
   48.3889    0.0143    0.0161 C   0  0  0  0  0  0  0  0  0  0  0  0
   42.3094    0.0156    0.0254 Zn  0  0  0  0  0  0  0  0  0  0  0  0
   38.8573    0.0229    0.0099 C   0  0  0  0  0  0  0  0  0  0  0  0
   39.5067   -1.2266    0.0967 C   0  0  0  0  0  0  0  0  0  0  0  0
   38.8428   -2.4858    0.2518 C   0  0  0  0  0  0  0  0  0  0  0  0
   39.7996   -3.4491    0.2338 C   0  0  0  0  0  0  0  0  0  0  0  0
   41.0611   -2.7858    0.0648 C   0  0  0  0  0  0  0  0  0  0  0  0
   40.8491   -1.4341    0.0091 N   0  0  0  0  0  0  0  0  0  0  0  0
   42.3026   -3.4236   -0.0373 C   0  0  0  0  0  0  0  0  0  0  0  0
   43.5464   -2.7872   -0.1182 C   0  0  0  0  0  0  0  0  0  0  0  0
   44.8051   -3.4494   -0.3108 C   0  0  0  0  0  0  0  0  0  0  0  0
   45.7656   -2.4897   -0.2973 C   0  0  0  0  0  0  0  0  0  0  0  0
   43.7638   -1.4392   -0.0162 N   0  0  0  0  0  0  0  0  0  0  0  0
   45.1069   -1.2340   -0.0988 C   0  0  0  0  0  0  0  0  0  0  0  0
   45.7610    0.0090    0.0322 C   0  0  0  0  0  0  0  0  0  0  0  0
   45.1106    1.2537    0.1685 C   0  0  0  0  0  0  0  0  0  0  0  0
   45.7731    2.5050    0.3824 C   0  0  0  0  0  0  0  0  0  0  0  0
   44.8162    3.4683    0.3983 C   0  0  0  0  0  0  0  0  0  0  0  0
   43.5563    2.8129    0.1915 C   0  0  0  0  0  0  0  0  0  0  0  0
   42.3157    3.4546    0.1059 C   0  0  0  0  0  0  0  0  0  0  0  0
   42.3177    4.9381    0.1442 C   0  0  0  0  0  0  0  0  0  0  0  0
   41.6344    5.6209    1.1518 C   0  0  0  0  0  0  0  0  0  0  0  0
   41.6384    7.0071    1.1879 C   0  0  0  0  0  0  0  0  0  0  0  0
   42.3190    7.7289    0.2166 C   0  0  0  0  0  0  0  0  0  0  0  0
   42.9991    7.0578   -0.7905 C   0  0  0  0  0  0  0  0  0  0  0  0
   43.0019    5.6715   -0.8266 C   0  0  0  0  0  0  0  0  0  0  0  0
   41.0728    2.8224   -0.0117 C   0  0  0  0  0  0  0  0  0  0  0  0
   39.8156    3.4922   -0.1861 C   0  0  0  0  0  0  0  0  0  0  0  0
   38.8551    2.5329   -0.2183 C   0  0  0  0  0  0  0  0  0  0  0  0
   39.5125    1.2700   -0.0666 C   0  0  0  0  0  0  0  0  0  0  0  0
   40.8549    1.4713    0.0333 N   0  0  0  0  0  0  0  0  0  0  0  0
   43.7690    1.4647    0.0800 N   0  0  0  0  0  0  0  0  0  0  0  0
   42.3003   -4.9074   -0.0617 C   0  0  0  0  0  0  0  0  0  0  0  0
   41.6204   -5.5988   -1.0657 C   0  0  0  0  0  0  0  0  0  0  0  0
   41.6219   -6.9853   -1.0882 C   0  0  0  0  0  0  0  0  0  0  0  0
   42.2971   -7.6989   -0.1071 C   0  0  0  0  0  0  0  0  0  0  0  0
   42.9739   -7.0193    0.8966 C   0  0  0  0  0  0  0  0  0  0  0  0
   42.9786   -5.6328    0.9193 C   0  0  0  0  0  0  0  0  0  0  0  0
   37.7803   -2.6131    0.3762 H   0  0  0  0  0  0  0  0  0  0  0  0
   39.6645   -4.5131    0.3423 H   0  0  0  0  0  0  0  0  0  0  0  0
   44.9361   -4.5097   -0.4552 H   0  0  0  0  0  0  0  0  0  0  0  0
   46.8277   -2.6172   -0.4244 H   0  0  0  0  0  0  0  0  0  0  0  0
   46.8345    2.6266    0.5209 H   0  0  0  0  0  0  0  0  0  0  0  0
   44.9501    4.5267    0.5534 H   0  0  0  0  0  0  0  0  0  0  0  0
   41.1126    5.0588    1.9185 H   0  0  0  0  0  0  0  0  0  0  0  0
   41.1083    7.5263    1.9788 H   0  0  0  0  0  0  0  0  0  0  0  0
   42.3192    8.8127    0.2446 H   0  0  0  0  0  0  0  0  0  0  0  0
   43.5296    7.6169   -1.5535 H   0  0  0  0  0  0  0  0  0  0  0  0
   43.5230    5.1496   -1.6215 H   0  0  0  0  0  0  0  0  0  0  0  0
   39.6857    4.5575   -0.2882 H   0  0  0  0  0  0  0  0  0  0  0  0
   37.7939    2.6656   -0.3481 H   0  0  0  0  0  0  0  0  0  0  0  0
   41.1035   -5.0433   -1.8405 H   0  0  0  0  0  0  0  0  0  0  0  0
   41.0944   -7.5113   -1.8763 H   0  0  0  0  0  0  0  0  0  0  0  0
   42.2957   -8.7830   -0.1248 H   0  0  0  0  0  0  0  0  0  0  0  0
   43.5004   -7.5718    1.6670 H   0  0  0  0  0  0  0  0  0  0  0  0
   43.4972   -5.1041    1.7116 H   0  0  0  0  0  0  0  0  0  0  0  0
  2  3  4  0  0  0  0
  3  4  1  0  0  0  0
  4  5  2  0  0  0  0
  5  6  4  0  0  0  0
  1  7  1  0  0  0  0
  3  7  4  0  0  0  0
  6  7  4  0  0  0  0
  6  8  4  0  0  0  0
  8  9  4  0  0  0  0
  9 10  4  0  0  0  0
 10 11  2  0  0  0  0
  1 12  1  0  0  0  0
  9 12  4  0  0  0  0
 11 13  4  0  0  0  0
 12 13  4  0  0  0  0
 13 14  4  0  0  0  0
 14 15  4  0  0  0  0
 15 16  4  0  0  0  0
 16 17  2  0  0  0  0
 17 18  4  0  0  0  0
 18 19  4  0  0  0  0
 19 20  1  0  0  0  0
 20 21  4  0  0  0  0
 21 22  4  0  0  0  0
 22 23  4  0  0  0  0
 23 24  4  0  0  0  0
 20 25  4  0  0  0  0
 24 25  4  0  0  0  0
 19 26  4  0  0  0  0
 26 27  4  0  0  0  0
 27 28  2  0  0  0  0
  2 29  4  0  0  0  0
 28 29  1  0  0  0  0
  1 30  1  0  0  0  0
 26 30  4  0  0  0  0
 29 30  4  0  0  0  0
  1 31  1  0  0  0  0
 15 31  4  0  0  0  0
 18 31  4  0  0  0  0
  8 32  1  0  0  0  0
 32 33  4  0  0  0  0
 33 34  4  0  0  0  0
 34 35  4  0  0  0  0
 35 36  4  0  0  0  0
 32 37  4  0  0  0  0
 36 37  4  0  0  0  0
  2 38  1  0  0  0  0
  4 39  1  0  0  0  0
  5 40  1  0  0  0  0
 10 41  1  0  0  0  0
 11 42  1  0  0  0  0
 16 43  1  0  0  0  0
 17 44  1  0  0  0  0
 21 45  1  0  0  0  0
 22 46  1  0  0  0  0
 23 47  1  0  0  0  0
 24 48  1  0  0  0  0
 25 49  1  0  0  0  0
 27 50  1  0  0  0  0
 28 51  1  0  0  0  0
 33 52  1  0  0  0  0
 34 53  1  0  0  0  0
 35 54  1  0  0  0  0
 36 55  1  0  0  0  0
 37 56  1  0  0  0  0
 58 59  4  0  0  0  0
 59 60  1  0  0  0  0
 60 61  2  0  0  0  0
 61 62  4  0  0  0  0
 57 63  1  0  0  0  0
 59 63  4  0  0  0  0
 62 63  4  0  0  0  0
 62 64  4  0  0  0  0
 64 65  4  0  0  0  0
 65 66  4  0  0  0  0
 66 67  2  0  0  0  0
 57 68  1  0  0  0  0
 65 68  4  0  0  0  0
 67 69  4  0  0  0  0
 68 69  4  0  0  0  0
 69 70  4  0  0  0  0
 70 71  4  0  0  0  0
 71 72  4  0  0  0  0
 72 73  2  0  0  0  0
 73 74  4  0  0  0  0
 74 75  4  0  0  0  0
 75 76  1  0  0  0  0
 76 77  4  0  0  0  0
 77 78  4  0  0  0  0
 78 79  4  0  0  0  0
 79 80  4  0  0  0  0
 76 81  4  0  0  0  0
 80 81  4  0  0  0  0
 75 82  4  0  0  0  0
 82 83  4  0  0  0  0
 83 84  2  0  0  0  0
 58 85  4  0  0  0  0
 84 85  1  0  0  0  0
 57 86  1  0  0  0  0
 82 86  4  0  0  0  0
 85 86  4  0  0  0  0
 57 87  1  0  0  0  0
 71 87  4  0  0  0  0
 74 87  4  0  0  0  0
 64 88  1  0  0  0  0
 88 89  4  0  0  0  0
 89 90  4  0  0  0  0
 90 91  4  0  0  0  0
 91 92  4  0  0  0  0
 88 93  4  0  0  0  0
 92 93  4  0  0  0  0
 58 94  1  0  0  0  0
 60 95  1  0  0  0  0
 61 96  1  0  0  0  0
 66 97  1  0  0  0  0
 67 98  1  0  0  0  0
 72 99  1  0  0  0  0
 73100  1  0  0  0  0
 77101  1  0  0  0  0
 78102  1  0  0  0  0
 79103  1  0  0  0  0
 80104  1  0  0  0  0
 81105  1  0  0  0  0
 83106  1  0  0  0  0
 84107  1  0  0  0  0
 89108  1  0  0  0  0
 90109  1  0  0  0  0
 91110  1  0  0  0  0
 92111  1  0  0  0  0
 93112  1  0  0  0  0
 14113  4  0  0  0  0
113114  3  0  0  0  0
 70116  4  0  0  0  0
115116  3  0  0  0  0
114118  4  0  0  0  0
118119  4  0  0  0  0
119120  4  0  0  0  0
120121  2  0  0  0  0
121122  4  0  0  0  0
117123  1  0  0  0  0
119123  4  0  0  0  0
122123  4  0  0  0  0
122124  4  0  0  0  0
124125  4  0  0  0  0
125126  4  0  0  0  0
126127  2  0  0  0  0
117128  1  0  0  0  0
125128  4  0  0  0  0
127129  4  0  0  0  0
128129  4  0  0  0  0
115130  4  0  0  0  0
129130  4  0  0  0  0
130131  4  0  0  0  0
131132  4  0  0  0  0
132133  2  0  0  0  0
133134  4  0  0  0  0
134135  4  0  0  0  0
135136  1  0  0  0  0
136137  4  0  0  0  0
137138  4  0  0  0  0
138139  4  0  0  0  0
139140  4  0  0  0  0
136141  4  0  0  0  0
140141  4  0  0  0  0
135142  4  0  0  0  0
142143  4  0  0  0  0
143144  2  0  0  0  0
118145  4  0  0  0  0
144145  4  0  0  0  0
117146  1  0  0  0  0
142146  4  0  0  0  0
145146  4  0  0  0  0
117147  1  0  0  0  0
131147  4  0  0  0  0
134147  4  0  0  0  0
124148  1  0  0  0  0
148149  4  0  0  0  0
149150  4  0  0  0  0
150151  4  0  0  0  0
151152  4  0  0  0  0
148153  4  0  0  0  0
152153  4  0  0  0  0
120154  1  0  0  0  0
121155  1  0  0  0  0
126156  1  0  0  0  0
127157  1  0  0  0  0
132158  1  0  0  0  0
133159  1  0  0  0  0
137160  1  0  0  0  0
138161  1  0  0  0  0
139162  1  0  0  0  0
140163  1  0  0  0  0
141164  1  0  0  0  0
143165  1  0  0  0  0
144166  1  0  0  0  0
149167  1  0  0  0  0
150168  1  0  0  0  0
151169  1  0  0  0  0
152170  1  0  0  0  0
153171  1  0  0  0  0
M  END
