 xtb: 6.5.1 (b24c23e)
          07302206573D

270309  0     0  0            999 V2000
   42.2496   -0.0005   -0.0509 Ni  0  0  0  0  0  0  0  0  0  0  0  0
   38.8528    0.0422   -0.1232 C   0  0  0  0  0  0  0  0  0  0  0  0
   39.5130    1.2519   -0.0846 C   0  0  0  0  0  0  0  0  0  0  0  0
   38.8383    2.5132   -0.0497 C   0  0  0  0  0  0  0  0  0  0  0  0
   39.7986    3.4650   -0.0020 C   0  0  0  0  0  0  0  0  0  0  0  0
   41.0602    2.7838   -0.0191 C   0  0  0  0  0  0  0  0  0  0  0  0
   40.8745    1.4243   -0.0599 N   0  0  0  0  0  0  0  0  0  0  0  0
   42.2865    3.4333    0.0277 C   0  0  0  0  0  0  0  0  0  0  0  0
   42.3031    4.9176    0.0688 C   0  0  0  0  0  0  0  0  0  0  0  0
   41.8131    5.6535   -1.0097 C   0  0  0  0  0  0  0  0  0  0  0  0
   41.8305    7.0430   -0.9696 C   0  0  0  0  0  0  0  0  0  0  0  0
   41.3633    7.7688   -2.0143 O   0  0  0  0  0  0  0  0  0  0  0  0
   42.3321    7.6999    0.1552 C   0  0  0  0  0  0  0  0  0  0  0  0
   42.3325    9.0700    0.1679 O   0  0  0  0  0  0  0  0  0  0  0  0
   42.8180    6.9639    1.2329 C   0  0  0  0  0  0  0  0  0  0  0  0
   43.2903    7.6785    2.3021 O   0  0  0  0  0  0  0  0  0  0  0  0
   42.8093    5.5750    1.1928 C   0  0  0  0  0  0  0  0  0  0  0  0
   43.4971    2.7547    0.0393 C   0  0  0  0  0  0  0  0  0  0  0  0
   44.7696    3.4102    0.0436 C   0  0  0  0  0  0  0  0  0  0  0  0
   45.7114    2.4370    0.0420 C   0  0  0  0  0  0  0  0  0  0  0  0
   43.6595    1.3870    0.0192 N   0  0  0  0  0  0  0  0  0  0  0  0
   45.0130    1.1916    0.0280 C   0  0  0  0  0  0  0  0  0  0  0  0
   45.6671   -0.0435    0.0150 C   0  0  0  0  0  0  0  0  0  0  0  0
   44.9836   -1.2619   -0.0164 C   0  0  0  0  0  0  0  0  0  0  0  0
   45.6518   -2.5238   -0.0458 C   0  0  0  0  0  0  0  0  0  0  0  0
   44.6871   -3.4731   -0.0835 C   0  0  0  0  0  0  0  0  0  0  0  0
   43.4306   -2.7871   -0.0678 C   0  0  0  0  0  0  0  0  0  0  0  0
   43.6258   -1.4238   -0.0355 N   0  0  0  0  0  0  0  0  0  0  0  0
   42.2041   -3.4345   -0.1132 C   0  0  0  0  0  0  0  0  0  0  0  0
   42.1834   -4.9190   -0.1473 C   0  0  0  0  0  0  0  0  0  0  0  0
   42.6619   -5.6522    0.9381 C   0  0  0  0  0  0  0  0  0  0  0  0
   42.6363   -7.0418    0.9050 C   0  0  0  0  0  0  0  0  0  0  0  0
   43.0914   -7.7650    1.9567 O   0  0  0  0  0  0  0  0  0  0  0  0
   42.1384   -7.7015   -0.2198 C   0  0  0  0  0  0  0  0  0  0  0  0
   42.1290   -9.0717   -0.2253 O   0  0  0  0  0  0  0  0  0  0  0  0
   41.6647   -6.9683   -1.3047 C   0  0  0  0  0  0  0  0  0  0  0  0
   41.1952   -7.6854   -2.3736 O   0  0  0  0  0  0  0  0  0  0  0  0
   41.6812   -5.5792   -1.2715 C   0  0  0  0  0  0  0  0  0  0  0  0
   40.9939   -2.7538   -0.1327 C   0  0  0  0  0  0  0  0  0  0  0  0
   39.7164   -3.4046   -0.1436 C   0  0  0  0  0  0  0  0  0  0  0  0
   38.7789   -2.4286   -0.1508 C   0  0  0  0  0  0  0  0  0  0  0  0
   39.4838   -1.1838   -0.1340 C   0  0  0  0  0  0  0  0  0  0  0  0
   40.8406   -1.3898   -0.1171 N   0  0  0  0  0  0  0  0  0  0  0  0
   37.7691    0.0555   -0.1394 H   0  0  0  0  0  0  0  0  0  0  0  0
   37.7665    2.6329   -0.0544 H   0  0  0  0  0  0  0  0  0  0  0  0
   39.6772    4.5347    0.0480 H   0  0  0  0  0  0  0  0  0  0  0  0
   41.4332    5.1537   -1.8913 H   0  0  0  0  0  0  0  0  0  0  0  0
   41.4608    8.7112   -1.7991 H   0  0  0  0  0  0  0  0  0  0  0  0
   42.7110    9.3612    1.0128 H   0  0  0  0  0  0  0  0  0  0  0  0
   43.6045    7.0879    2.9992 H   0  0  0  0  0  0  0  0  0  0  0  0
   43.1781    5.0078    2.0393 H   0  0  0  0  0  0  0  0  0  0  0  0
   44.9139    4.4782    0.0365 H   0  0  0  0  0  0  0  0  0  0  0  0
   46.7847    2.5375    0.0430 H   0  0  0  0  0  0  0  0  0  0  0  0
   46.7224   -2.6498   -0.0438 H   0  0  0  0  0  0  0  0  0  0  0  0
   44.8051   -4.5434   -0.1267 H   0  0  0  0  0  0  0  0  0  0  0  0
   43.0392   -5.1501    1.8195 H   0  0  0  0  0  0  0  0  0  0  0  0
   42.9904   -8.7079    1.7455 H   0  0  0  0  0  0  0  0  0  0  0  0
   41.7556   -9.3647   -1.0718 H   0  0  0  0  0  0  0  0  0  0  0  0
   40.8930   -7.0961   -3.0771 H   0  0  0  0  0  0  0  0  0  0  0  0
   41.3214   -5.0142   -2.1233 H   0  0  0  0  0  0  0  0  0  0  0  0
   39.5691   -4.4723   -0.1357 H   0  0  0  0  0  0  0  0  0  0  0  0
   37.7046   -2.5225   -0.1588 H   0  0  0  0  0  0  0  0  0  0  0  0
   97.9529   -0.0549   -0.0169 Ni  0  0  0  0  0  0  0  0  0  0  0  0
  101.3495   -0.0880   -0.1037 C   0  0  0  0  0  0  0  0  0  0  0  0
  100.6892   -1.2940   -0.2054 C   0  0  0  0  0  0  0  0  0  0  0  0
  101.3637   -2.5505   -0.3227 C   0  0  0  0  0  0  0  0  0  0  0  0
  100.4031   -3.5009   -0.3913 C   0  0  0  0  0  0  0  0  0  0  0  0
   99.1418   -2.8224   -0.3245 C   0  0  0  0  0  0  0  0  0  0  0  0
   99.3277   -1.4680   -0.2008 N   0  0  0  0  0  0  0  0  0  0  0  0
   97.9156   -3.4733   -0.3508 C   0  0  0  0  0  0  0  0  0  0  0  0
   97.8992   -4.9516   -0.4900 C   0  0  0  0  0  0  0  0  0  0  0  0
   98.3795   -5.5507   -1.6540 C   0  0  0  0  0  0  0  0  0  0  0  0
   98.3619   -6.9348   -1.7829 C   0  0  0  0  0  0  0  0  0  0  0  0
   98.8196   -7.5281   -2.9121 O   0  0  0  0  0  0  0  0  0  0  0  0
   97.8701   -7.7239   -0.7418 C   0  0  0  0  0  0  0  0  0  0  0  0
   97.8692   -9.0855   -0.8956 O   0  0  0  0  0  0  0  0  0  0  0  0
   97.3944   -7.1246    0.4216 C   0  0  0  0  0  0  0  0  0  0  0  0
   96.9317   -7.9641    1.4006 O   0  0  0  0  0  0  0  0  0  0  0  0
   97.4031   -5.7411    0.5504 C   0  0  0  0  0  0  0  0  0  0  0  0
   96.7054   -2.8021   -0.2466 C   0  0  0  0  0  0  0  0  0  0  0  0
   95.4326   -3.4547   -0.3061 C   0  0  0  0  0  0  0  0  0  0  0  0
   94.4914   -2.4897   -0.1766 C   0  0  0  0  0  0  0  0  0  0  0  0
   96.5433   -1.4422   -0.0988 N   0  0  0  0  0  0  0  0  0  0  0  0
   95.1901   -1.2508   -0.0493 C   0  0  0  0  0  0  0  0  0  0  0  0
   94.5364   -0.0236    0.0916 C   0  0  0  0  0  0  0  0  0  0  0  0
   95.2196    1.1915    0.1888 C   0  0  0  0  0  0  0  0  0  0  0  0
   94.5511    2.4481    0.3066 C   0  0  0  0  0  0  0  0  0  0  0  0
   95.5151    3.3975    0.3571 C   0  0  0  0  0  0  0  0  0  0  0  0
   96.7717    2.7157    0.2810 C   0  0  0  0  0  0  0  0  0  0  0  0
   96.5770    1.3566    0.1685 N   0  0  0  0  0  0  0  0  0  0  0  0
   97.9976    3.3656    0.2922 C   0  0  0  0  0  0  0  0  0  0  0  0
   98.0183    4.8453    0.4164 C   0  0  0  0  0  0  0  0  0  0  0  0
   97.5526    5.4581    1.5792 C   0  0  0  0  0  0  0  0  0  0  0  0
   97.5780    6.8434    1.6940 C   0  0  0  0  0  0  0  0  0  0  0  0
   97.1354    7.4499    2.8220 O   0  0  0  0  0  0  0  0  0  0  0  0
   98.0630    7.6196    0.6401 C   0  0  0  0  0  0  0  0  0  0  0  0
   98.0724    8.9826    0.7805 O   0  0  0  0  0  0  0  0  0  0  0  0
   98.5242    7.0066   -0.5220 C   0  0  0  0  0  0  0  0  0  0  0  0
   98.9815    7.8339   -1.5137 O   0  0  0  0  0  0  0  0  0  0  0  0
   98.5080    5.6219   -0.6366 C   0  0  0  0  0  0  0  0  0  0  0  0
   99.2078    2.6918    0.1920 C   0  0  0  0  0  0  0  0  0  0  0  0
  100.4849    3.3408    0.2470 C   0  0  0  0  0  0  0  0  0  0  0  0
  101.4227    2.3714    0.1363 C   0  0  0  0  0  0  0  0  0  0  0  0
  100.7183    1.1315    0.0214 C   0  0  0  0  0  0  0  0  0  0  0  0
   99.3614    1.3340    0.0621 N   0  0  0  0  0  0  0  0  0  0  0  0
  102.4331   -0.0994   -0.1213 H   0  0  0  0  0  0  0  0  0  0  0  0
  102.4354   -2.6689   -0.3420 H   0  0  0  0  0  0  0  0  0  0  0  0
  100.5241   -4.5688   -0.4720 H   0  0  0  0  0  0  0  0  0  0  0  0
   98.7521   -4.9472   -2.4716 H   0  0  0  0  0  0  0  0  0  0  0  0
   98.7229   -8.4896   -2.8124 H   0  0  0  0  0  0  0  0  0  0  0  0
   97.4979   -9.4771   -0.0890 H   0  0  0  0  0  0  0  0  0  0  0  0
   96.6237   -7.4624    2.1668 H   0  0  0  0  0  0  0  0  0  0  0  0
   97.0422   -5.2812    1.4628 H   0  0  0  0  0  0  0  0  0  0  0  0
   95.2878   -4.5140   -0.4410 H   0  0  0  0  0  0  0  0  0  0  0  0
   93.4181   -2.5907   -0.1738 H   0  0  0  0  0  0  0  0  0  0  0  0
   93.4806    2.5715    0.3378 H   0  0  0  0  0  0  0  0  0  0  0  0
   95.3965    4.4659    0.4315 H   0  0  0  0  0  0  0  0  0  0  0  0
   97.1853    4.8646    2.4064 H   0  0  0  0  0  0  0  0  0  0  0  0
   97.2327    8.4101    2.7108 H   0  0  0  0  0  0  0  0  0  0  0  0
   98.4345    9.3648   -0.0347 H   0  0  0  0  0  0  0  0  0  0  0  0
   99.2735    7.3234   -2.2803 H   0  0  0  0  0  0  0  0  0  0  0  0
   98.8583    5.1510   -1.5476 H   0  0  0  0  0  0  0  0  0  0  0  0
  100.6317    4.4019    0.3670 H   0  0  0  0  0  0  0  0  0  0  0  0
  102.4970    2.4660    0.1370 H   0  0  0  0  0  0  0  0  0  0  0  0
   47.0718   -0.0589    0.0288 C   0  0  0  0  0  0  0  0  0  0  0  0
   48.2960   -0.0671    0.0401 C   0  0  0  0  0  0  0  0  0  0  0  0
   49.6390   -0.0730    0.0474 C   0  0  0  0  0  0  0  0  0  0  0  0
   50.8696   -0.0742    0.0507 C   0  0  0  0  0  0  0  0  0  0  0  0
   52.2078   -0.0739    0.0503 C   0  0  0  0  0  0  0  0  0  0  0  0
   53.4384   -0.0710    0.0461 C   0  0  0  0  0  0  0  0  0  0  0  0
   54.7811   -0.0660    0.0369 C   0  0  0  0  0  0  0  0  0  0  0  0
   56.0056   -0.0609    0.0239 C   0  0  0  0  0  0  0  0  0  0  0  0
   65.6364   -0.0339    0.0393 C   0  0  0  0  0  0  0  0  0  0  0  0
   66.8608   -0.0300    0.0555 C   0  0  0  0  0  0  0  0  0  0  0  0
   68.2034   -0.0290    0.0683 C   0  0  0  0  0  0  0  0  0  0  0  0
   69.4341   -0.0245    0.0762 C   0  0  0  0  0  0  0  0  0  0  0  0
   70.7720   -0.0216    0.0793 C   0  0  0  0  0  0  0  0  0  0  0  0
   72.0028   -0.0182    0.0773 C   0  0  0  0  0  0  0  0  0  0  0  0
   73.3454   -0.0143    0.0693 C   0  0  0  0  0  0  0  0  0  0  0  0
   74.5699   -0.0112    0.0566 C   0  0  0  0  0  0  0  0  0  0  0  0
   84.1990   -0.0014    0.1254 C   0  0  0  0  0  0  0  0  0  0  0  0
   85.4232   -0.0001    0.1499 C   0  0  0  0  0  0  0  0  0  0  0  0
   86.7658    0.0014    0.1684 C   0  0  0  0  0  0  0  0  0  0  0  0
   87.9965    0.0032    0.1762 C   0  0  0  0  0  0  0  0  0  0  0  0
   89.3346    0.0021    0.1751 C   0  0  0  0  0  0  0  0  0  0  0  0
   90.5651   -0.0004    0.1657 C   0  0  0  0  0  0  0  0  0  0  0  0
   91.9079   -0.0046    0.1479 C   0  0  0  0  0  0  0  0  0  0  0  0
   93.1320   -0.0113    0.1250 C   0  0  0  0  0  0  0  0  0  0  0  0
   60.8212   -0.0433   -0.0275 Ni  0  0  0  0  0  0  0  0  0  0  0  0
   57.4089   -0.0551    0.0049 C   0  0  0  0  0  0  0  0  0  0  0  0
   58.0823    1.1402    0.2777 C   0  0  0  0  0  0  0  0  0  0  0  0
   57.4173    2.3576    0.6139 C   0  0  0  0  0  0  0  0  0  0  0  0
   58.3692    3.3221    0.6545 C   0  0  0  0  0  0  0  0  0  0  0  0
   59.6124    2.6898    0.3357 C   0  0  0  0  0  0  0  0  0  0  0  0
   59.4298    1.3379    0.1521 N   0  0  0  0  0  0  0  0  0  0  0  0
   60.8119    3.3711    0.1677 C   0  0  0  0  0  0  0  0  0  0  0  0
   60.8036    4.8511    0.2399 C   0  0  0  0  0  0  0  0  0  0  0  0
   61.5679    5.5151    1.2003 C   0  0  0  0  0  0  0  0  0  0  0  0
   61.5650    6.9049    1.2822 C   0  0  0  0  0  0  0  0  0  0  0  0
   62.2959    7.5623    2.2196 O   0  0  0  0  0  0  0  0  0  0  0  0
   60.7958    7.6512    0.3834 C   0  0  0  0  0  0  0  0  0  0  0  0
   60.7776    9.0081    0.4332 O   0  0  0  0  0  0  0  0  0  0  0  0
   60.0367    6.9789   -0.5783 C   0  0  0  0  0  0  0  0  0  0  0  0
   59.3096    7.7692   -1.4305 O   0  0  0  0  0  0  0  0  0  0  0  0
   60.0287    5.5932   -0.6536 C   0  0  0  0  0  0  0  0  0  0  0  0
   62.0176    2.7192   -0.0583 C   0  0  0  0  0  0  0  0  0  0  0  0
   63.2635    3.3883   -0.2765 C   0  0  0  0  0  0  0  0  0  0  0  0
   64.2226    2.4306   -0.3052 C   0  0  0  0  0  0  0  0  0  0  0  0
   62.2069    1.3559   -0.0147 N   0  0  0  0  0  0  0  0  0  0  0  0
   63.5585    1.1805   -0.1218 C   0  0  0  0  0  0  0  0  0  0  0  0
   64.2331   -0.0373    0.0170 C   0  0  0  0  0  0  0  0  0  0  0  0
   63.5593   -1.2584    0.1193 C   0  0  0  0  0  0  0  0  0  0  0  0
   64.2241   -2.5115    0.2822 C   0  0  0  0  0  0  0  0  0  0  0  0
   63.2726   -3.4718    0.1854 C   0  0  0  0  0  0  0  0  0  0  0  0
   62.0295   -2.8005   -0.0429 C   0  0  0  0  0  0  0  0  0  0  0  0
   62.2120   -1.4362   -0.0345 N   0  0  0  0  0  0  0  0  0  0  0  0
   60.8306   -3.4507   -0.3060 C   0  0  0  0  0  0  0  0  0  0  0  0
   60.8373   -4.9281   -0.4372 C   0  0  0  0  0  0  0  0  0  0  0  0
   61.6052   -5.5346   -1.4320 C   0  0  0  0  0  0  0  0  0  0  0  0
   61.5998   -6.9182   -1.5649 C   0  0  0  0  0  0  0  0  0  0  0  0
   62.3260   -7.5191   -2.5364 O   0  0  0  0  0  0  0  0  0  0  0  0
   60.8323   -7.6964   -0.6957 C   0  0  0  0  0  0  0  0  0  0  0  0
   60.8590   -9.0735   -0.8601 O   0  0  0  0  0  0  0  0  0  0  0  0
   60.0965   -7.0939    0.3229 C   0  0  0  0  0  0  0  0  0  0  0  0
   59.3736   -7.8519    1.1965 O   0  0  0  0  0  0  0  0  0  0  0  0
   60.0836   -5.7084    0.4399 C   0  0  0  0  0  0  0  0  0  0  0  0
   59.6253   -2.7743   -0.4429 C   0  0  0  0  0  0  0  0  0  0  0  0
   58.3798   -3.4082   -0.7508 C   0  0  0  0  0  0  0  0  0  0  0  0
   57.4206   -2.4558   -0.6512 C   0  0  0  0  0  0  0  0  0  0  0  0
   58.0840   -1.2417   -0.2991 C   0  0  0  0  0  0  0  0  0  0  0  0
   59.4358   -1.4298   -0.2148 N   0  0  0  0  0  0  0  0  0  0  0  0
   56.3575    2.4485    0.7894 H   0  0  0  0  0  0  0  0  0  0  0  0
   58.2497    4.3682    0.8844 H   0  0  0  0  0  0  0  0  0  0  0  0
   62.1573    4.9459    1.9102 H   0  0  0  0  0  0  0  0  0  0  0  0
   62.7805    6.9438    2.7819 H   0  0  0  0  0  0  0  0  0  0  0  0
   60.1890    9.3299   -0.2686 H   0  0  0  0  0  0  0  0  0  0  0  0
   58.8178    7.2313   -2.0645 H   0  0  0  0  0  0  0  0  0  0  0  0
   59.4413    5.0955   -1.4162 H   0  0  0  0  0  0  0  0  0  0  0  0
   63.3807    4.4532   -0.3936 H   0  0  0  0  0  0  0  0  0  0  0  0
   65.2862    2.5456   -0.4386 H   0  0  0  0  0  0  0  0  0  0  0  0
   65.2838   -2.6261    0.4435 H   0  0  0  0  0  0  0  0  0  0  0  0
   63.3919   -4.5400    0.2633 H   0  0  0  0  0  0  0  0  0  0  0  0
   62.1873   -4.9381   -2.1224 H   0  0  0  0  0  0  0  0  0  0  0  0
   62.1951   -8.4796   -2.4660 H   0  0  0  0  0  0  0  0  0  0  0  0
   59.9747   -9.4483   -0.7556 H   0  0  0  0  0  0  0  0  0  0  0  0
   59.6806   -8.7694    1.1794 H   0  0  0  0  0  0  0  0  0  0  0  0
   59.5083   -5.2507    1.2342 H   0  0  0  0  0  0  0  0  0  0  0  0
   58.2634   -4.4482   -1.0082 H   0  0  0  0  0  0  0  0  0  0  0  0
   56.3571   -2.5519   -0.7993 H   0  0  0  0  0  0  0  0  0  0  0  0
   79.3850   -0.0005    0.0100 Ni  0  0  0  0  0  0  0  0  0  0  0  0
   75.9732   -0.0071    0.0372 C   0  0  0  0  0  0  0  0  0  0  0  0
   76.6481    1.1885    0.3055 C   0  0  0  0  0  0  0  0  0  0  0  0
   75.9844    2.4091    0.6329 C   0  0  0  0  0  0  0  0  0  0  0  0
   76.9373    3.3728    0.6657 C   0  0  0  0  0  0  0  0  0  0  0  0
   78.1800    2.7366    0.3528 C   0  0  0  0  0  0  0  0  0  0  0  0
   77.9957    1.3836    0.1791 N   0  0  0  0  0  0  0  0  0  0  0  0
   79.3811    3.4147    0.1840 C   0  0  0  0  0  0  0  0  0  0  0  0
   79.3739    4.8953    0.2428 C   0  0  0  0  0  0  0  0  0  0  0  0
   80.1336    5.5678    1.2010 C   0  0  0  0  0  0  0  0  0  0  0  0
   80.1313    6.9583    1.2698 C   0  0  0  0  0  0  0  0  0  0  0  0
   80.8576    7.6240    2.2048 O   0  0  0  0  0  0  0  0  0  0  0  0
   79.3675    7.6967    0.3598 C   0  0  0  0  0  0  0  0  0  0  0  0
   79.3501    9.0539    0.3967 O   0  0  0  0  0  0  0  0  0  0  0  0
   78.6127    7.0158   -0.5993 C   0  0  0  0  0  0  0  0  0  0  0  0
   77.8908    7.7986   -1.4627 O   0  0  0  0  0  0  0  0  0  0  0  0
   78.6040    5.6295   -0.6615 C   0  0  0  0  0  0  0  0  0  0  0  0
   80.5873    2.7589   -0.0281 C   0  0  0  0  0  0  0  0  0  0  0  0
   81.8366    3.4237   -0.2391 C   0  0  0  0  0  0  0  0  0  0  0  0
   82.7942    2.4642   -0.2489 C   0  0  0  0  0  0  0  0  0  0  0  0
   80.7734    1.3956    0.0283 N   0  0  0  0  0  0  0  0  0  0  0  0
   82.1258    1.2168   -0.0632 C   0  0  0  0  0  0  0  0  0  0  0  0
   82.7960   -0.0019    0.0886 C   0  0  0  0  0  0  0  0  0  0  0  0
   82.1184   -1.2214    0.1842 C   0  0  0  0  0  0  0  0  0  0  0  0
   82.7787   -2.4765    0.3501 C   0  0  0  0  0  0  0  0  0  0  0  0
   81.8268   -3.4345    0.2360 C   0  0  0  0  0  0  0  0  0  0  0  0
   80.5878   -2.7598   -0.0036 C   0  0  0  0  0  0  0  0  0  0  0  0
   80.7726   -1.3960    0.0136 N   0  0  0  0  0  0  0  0  0  0  0  0
   79.3900   -3.4066   -0.2810 C   0  0  0  0  0  0  0  0  0  0  0  0
   79.3972   -4.8830   -0.4234 C   0  0  0  0  0  0  0  0  0  0  0  0
   80.1734   -5.4815   -1.4166 C   0  0  0  0  0  0  0  0  0  0  0  0
   80.1696   -6.8639   -1.5606 C   0  0  0  0  0  0  0  0  0  0  0  0
   80.9039   -7.4567   -2.5311 O   0  0  0  0  0  0  0  0  0  0  0  0
   79.3956   -7.6493   -0.7037 C   0  0  0  0  0  0  0  0  0  0  0  0
   79.4243   -9.0248   -0.8793 O   0  0  0  0  0  0  0  0  0  0  0  0
   78.6515   -7.0551    0.3137 C   0  0  0  0  0  0  0  0  0  0  0  0
   77.9218   -7.8201    1.1759 O   0  0  0  0  0  0  0  0  0  0  0  0
   78.6370   -5.6706    0.4416 C   0  0  0  0  0  0  0  0  0  0  0  0
   78.1863   -2.7280   -0.4193 C   0  0  0  0  0  0  0  0  0  0  0  0
   76.9403   -3.3586   -0.7323 C   0  0  0  0  0  0  0  0  0  0  0  0
   75.9820   -2.4060   -0.6265 C   0  0  0  0  0  0  0  0  0  0  0  0
   76.6466   -1.1944   -0.2678 C   0  0  0  0  0  0  0  0  0  0  0  0
   77.9980   -1.3844   -0.1839 N   0  0  0  0  0  0  0  0  0  0  0  0
   74.9246    2.5025    0.8075 H   0  0  0  0  0  0  0  0  0  0  0  0
   76.8189    4.4209    0.8873 H   0  0  0  0  0  0  0  0  0  0  0  0
   80.7187    5.0050    1.9195 H   0  0  0  0  0  0  0  0  0  0  0  0
   81.3390    7.0105    2.7753 H   0  0  0  0  0  0  0  0  0  0  0  0
   78.7649    9.3695   -0.3107 H   0  0  0  0  0  0  0  0  0  0  0  0
   77.4013    7.2552   -2.0937 H   0  0  0  0  0  0  0  0  0  0  0  0
   78.0200    5.1250   -1.4222 H   0  0  0  0  0  0  0  0  0  0  0  0
   81.9572    4.4874   -0.3641 H   0  0  0  0  0  0  0  0  0  0  0  0
   83.8594    2.5761   -0.3718 H   0  0  0  0  0  0  0  0  0  0  0  0
   83.8361   -2.5938    0.5240 H   0  0  0  0  0  0  0  0  0  0  0  0
   81.9431   -4.5033    0.3097 H   0  0  0  0  0  0  0  0  0  0  0  0
   80.7609   -4.8794   -2.0975 H   0  0  0  0  0  0  0  0  0  0  0  0
   80.7725   -8.4177   -2.4702 H   0  0  0  0  0  0  0  0  0  0  0  0
   78.5412   -9.4022   -0.7731 H   0  0  0  0  0  0  0  0  0  0  0  0
   78.2321   -8.7365    1.1581 H   0  0  0  0  0  0  0  0  0  0  0  0
   78.0555   -5.2196    1.2352 H   0  0  0  0  0  0  0  0  0  0  0  0
   76.8228   -4.3968   -0.9964 H   0  0  0  0  0  0  0  0  0  0  0  0
   74.9184   -2.5001   -0.7757 H   0  0  0  0  0  0  0  0  0  0  0  0
  2  3  4  0  0  0  0
  3  4  4  0  0  0  0
  4  5  2  0  0  0  0
  5  6  4  0  0  0  0
  1  7  1  0  0  0  0
  3  7  4  0  0  0  0
  6  7  4  0  0  0  0
  6  8  4  0  0  0  0
  8  9  1  0  0  0  0
  9 10  4  0  0  0  0
 10 11  4  0  0  0  0
 11 12  1  0  0  0  0
 11 13  4  0  0  0  0
 13 14  1  0  0  0  0
 13 15  4  0  0  0  0
 15 16  1  0  0  0  0
  9 17  4  0  0  0  0
 15 17  4  0  0  0  0
  8 18  4  0  0  0  0
 18 19  4  0  0  0  0
 19 20  2  0  0  0  0
  1 21  1  0  0  0  0
 18 21  4  0  0  0  0
 20 22  4  0  0  0  0
 21 22  4  0  0  0  0
 22 23  4  0  0  0  0
 23 24  4  0  0  0  0
 24 25  4  0  0  0  0
 25 26  2  0  0  0  0
 26 27  4  0  0  0  0
  1 28  1  0  0  0  0
 24 28  4  0  0  0  0
 27 28  4  0  0  0  0
 27 29  4  0  0  0  0
 29 30  1  0  0  0  0
 30 31  4  0  0  0  0
 31 32  4  0  0  0  0
 32 33  1  0  0  0  0
 32 34  4  0  0  0  0
 34 35  1  0  0  0  0
 34 36  4  0  0  0  0
 36 37  1  0  0  0  0
 30 38  4  0  0  0  0
 36 38  4  0  0  0  0
 29 39  4  0  0  0  0
 39 40  4  0  0  0  0
 40 41  2  0  0  0  0
  2 42  4  0  0  0  0
 41 42  4  0  0  0  0
  1 43  1  0  0  0  0
 39 43  4  0  0  0  0
 42 43  4  0  0  0  0
  2 44  1  0  0  0  0
  4 45  1  0  0  0  0
  5 46  1  0  0  0  0
 10 47  1  0  0  0  0
 12 48  1  0  0  0  0
 14 49  1  0  0  0  0
 16 50  1  0  0  0  0
 17 51  1  0  0  0  0
 19 52  1  0  0  0  0
 20 53  1  0  0  0  0
 25 54  1  0  0  0  0
 26 55  1  0  0  0  0
 31 56  1  0  0  0  0
 33 57  1  0  0  0  0
 35 58  1  0  0  0  0
 37 59  1  0  0  0  0
 38 60  1  0  0  0  0
 40 61  1  0  0  0  0
 41 62  1  0  0  0  0
 64 65  4  0  0  0  0
 65 66  4  0  0  0  0
 66 67  2  0  0  0  0
 67 68  4  0  0  0  0
 63 69  1  0  0  0  0
 65 69  4  0  0  0  0
 68 69  4  0  0  0  0
 68 70  4  0  0  0  0
 70 71  1  0  0  0  0
 71 72  4  0  0  0  0
 72 73  4  0  0  0  0
 73 74  1  0  0  0  0
 73 75  4  0  0  0  0
 75 76  1  0  0  0  0
 75 77  4  0  0  0  0
 77 78  1  0  0  0  0
 71 79  4  0  0  0  0
 77 79  4  0  0  0  0
 70 80  4  0  0  0  0
 80 81  4  0  0  0  0
 81 82  2  0  0  0  0
 63 83  1  0  0  0  0
 80 83  4  0  0  0  0
 82 84  4  0  0  0  0
 83 84  4  0  0  0  0
 84 85  4  0  0  0  0
 85 86  4  0  0  0  0
 86 87  4  0  0  0  0
 87 88  2  0  0  0  0
 88 89  4  0  0  0  0
 63 90  1  0  0  0  0
 86 90  4  0  0  0  0
 89 90  4  0  0  0  0
 89 91  4  0  0  0  0
 91 92  1  0  0  0  0
 92 93  4  0  0  0  0
 93 94  4  0  0  0  0
 94 95  1  0  0  0  0
 94 96  4  0  0  0  0
 96 97  1  0  0  0  0
 96 98  4  0  0  0  0
 98 99  1  0  0  0  0
 92100  4  0  0  0  0
 98100  4  0  0  0  0
 91101  4  0  0  0  0
101102  4  0  0  0  0
102103  2  0  0  0  0
 64104  4  0  0  0  0
103104  4  0  0  0  0
 63105  1  0  0  0  0
101105  4  0  0  0  0
104105  4  0  0  0  0
 64106  1  0  0  0  0
 66107  1  0  0  0  0
 67108  1  0  0  0  0
 72109  1  0  0  0  0
 74110  1  0  0  0  0
 76111  1  0  0  0  0
 78112  1  0  0  0  0
 79113  1  0  0  0  0
 81114  1  0  0  0  0
 82115  1  0  0  0  0
 87116  1  0  0  0  0
 88117  1  0  0  0  0
 93118  1  0  0  0  0
 95119  1  0  0  0  0
 97120  1  0  0  0  0
 99121  1  0  0  0  0
100122  1  0  0  0  0
102123  1  0  0  0  0
103124  1  0  0  0  0
 23125  4  0  0  0  0
125126  3  0  0  0  0
126127  4  0  0  0  0
127128  3  0  0  0  0
128129  4  0  0  0  0
129130  3  0  0  0  0
130131  4  0  0  0  0
131132  3  0  0  0  0
133134  3  0  0  0  0
134135  4  0  0  0  0
135136  3  0  0  0  0
136137  4  0  0  0  0
137138  3  0  0  0  0
138139  4  0  0  0  0
139140  3  0  0  0  0
141142  3  0  0  0  0
142143  4  0  0  0  0
143144  3  0  0  0  0
144145  4  0  0  0  0
145146  3  0  0  0  0
146147  4  0  0  0  0
 85148  4  0  0  0  0
147148  3  0  0  0  0
132150  4  0  0  0  0
150151  4  0  0  0  0
151152  4  0  0  0  0
152153  2  0  0  0  0
153154  4  0  0  0  0
149155  1  0  0  0  0
151155  4  0  0  0  0
154155  4  0  0  0  0
154156  4  0  0  0  0
156157  1  0  0  0  0
157158  4  0  0  0  0
158159  4  0  0  0  0
159160  1  0  0  0  0
159161  4  0  0  0  0
161162  1  0  0  0  0
161163  4  0  0  0  0
163164  1  0  0  0  0
157165  4  0  0  0  0
163165  4  0  0  0  0
156166  4  0  0  0  0
166167  4  0  0  0  0
167168  2  0  0  0  0
149169  1  0  0  0  0
166169  4  0  0  0  0
168170  4  0  0  0  0
169170  4  0  0  0  0
133171  4  0  0  0  0
170171  4  0  0  0  0
171172  4  0  0  0  0
172173  4  0  0  0  0
173174  2  0  0  0  0
174175  4  0  0  0  0
149176  1  0  0  0  0
172176  4  0  0  0  0
175176  4  0  0  0  0
175177  4  0  0  0  0
177178  1  0  0  0  0
178179  4  0  0  0  0
179180  4  0  0  0  0
180181  1  0  0  0  0
180182  4  0  0  0  0
182183  1  0  0  0  0
182184  4  0  0  0  0
184185  1  0  0  0  0
178186  4  0  0  0  0
184186  4  0  0  0  0
177187  4  0  0  0  0
187188  4  0  0  0  0
188189  2  0  0  0  0
150190  4  0  0  0  0
189190  4  0  0  0  0
149191  1  0  0  0  0
187191  4  0  0  0  0
190191  4  0  0  0  0
152192  1  0  0  0  0
153193  1  0  0  0  0
158194  1  0  0  0  0
160195  1  0  0  0  0
162196  1  0  0  0  0
164197  1  0  0  0  0
165198  1  0  0  0  0
167199  1  0  0  0  0
168200  1  0  0  0  0
173201  1  0  0  0  0
174202  1  0  0  0  0
179203  1  0  0  0  0
181204  1  0  0  0  0
183205  1  0  0  0  0
185206  1  0  0  0  0
186207  1  0  0  0  0
188208  1  0  0  0  0
189209  1  0  0  0  0
140211  4  0  0  0  0
211212  4  0  0  0  0
212213  4  0  0  0  0
213214  2  0  0  0  0
214215  4  0  0  0  0
210216  1  0  0  0  0
212216  4  0  0  0  0
215216  4  0  0  0  0
215217  4  0  0  0  0
217218  1  0  0  0  0
218219  4  0  0  0  0
219220  4  0  0  0  0
220221  1  0  0  0  0
220222  4  0  0  0  0
222223  1  0  0  0  0
222224  4  0  0  0  0
224225  1  0  0  0  0
218226  4  0  0  0  0
224226  4  0  0  0  0
217227  4  0  0  0  0
227228  4  0  0  0  0
228229  2  0  0  0  0
210230  1  0  0  0  0
227230  4  0  0  0  0
229231  4  0  0  0  0
230231  4  0  0  0  0
141232  4  0  0  0  0
231232  4  0  0  0  0
232233  4  0  0  0  0
233234  4  0  0  0  0
234235  2  0  0  0  0
235236  4  0  0  0  0
210237  1  0  0  0  0
233237  4  0  0  0  0
236237  4  0  0  0  0
236238  4  0  0  0  0
238239  1  0  0  0  0
239240  4  0  0  0  0
240241  4  0  0  0  0
241242  1  0  0  0  0
241243  4  0  0  0  0
243244  1  0  0  0  0
243245  4  0  0  0  0
245246  1  0  0  0  0
239247  4  0  0  0  0
245247  4  0  0  0  0
238248  4  0  0  0  0
248249  4  0  0  0  0
249250  2  0  0  0  0
211251  4  0  0  0  0
250251  4  0  0  0  0
210252  1  0  0  0  0
248252  4  0  0  0  0
251252  4  0  0  0  0
213253  1  0  0  0  0
214254  1  0  0  0  0
219255  1  0  0  0  0
221256  1  0  0  0  0
223257  1  0  0  0  0
225258  1  0  0  0  0
226259  1  0  0  0  0
228260  1  0  0  0  0
229261  1  0  0  0  0
234262  1  0  0  0  0
235263  1  0  0  0  0
240264  1  0  0  0  0
242265  1  0  0  0  0
244266  1  0  0  0  0
246267  1  0  0  0  0
247268  1  0  0  0  0
249269  1  0  0  0  0
250270  1  0  0  0  0
M  END
