518

C 95.160781 -0.029894 -0.159033
C 95.888165 -0.226666 1.210752
C 95.286886 -0.579333 2.399064
C 96.307200 -0.613912 3.383255
C 97.488054 -0.250705 2.772658
N 97.231752 -0.075327 1.434596
C 98.906135 -0.103194 3.470961
C 100.040152 -0.046698 2.715077
C 101.352044 0.103583 3.312029
C 102.253752 0.164578 2.340102
N 100.234563 -0.087180 1.358791
C 101.568686 0.032303 1.068550
C 102.228966 0.040689 -0.119036
C 101.445169 -0.150976 -1.487493
C 101.957135 -0.700452 -2.646245
C 100.935282 -0.662255 -3.627783
C 99.831403 -0.087093 -3.043921
C 98.428892 0.177707 -3.748604
C 98.421951 0.391295 -5.226930
C 98.914006 1.580605 -5.802820
O 99.408345 2.665557 -5.126646
C 98.527173 3.233070 -4.157129
C 99.015467 1.706096 -7.196026
C 98.586092 0.681310 -8.035290
C 98.070204 -0.488992 -7.483801
C 98.006505 -0.651968 -6.093353
O 97.501811 -1.795716 -5.522849
C 97.748847 -3.017760 -6.212607
C 97.305740 0.204033 -2.983890
C 95.974712 0.367250 -3.540634
C 95.091072 0.286163 -2.548982
C 95.825387 0.095813 -1.322317
N 97.152191 0.078546 -1.630887
N 100.132599 0.168547 -1.724640
C 98.943416 0.011863 4.960846
C 98.642874 1.226026 5.617593
O 98.179182 2.346500 4.975855
C 99.192806 3.020540 4.233908
C 98.675542 1.317316 7.013941
C 99.033607 0.212931 7.780410
C 99.319961 -0.999469 7.152346
C 99.274823 -1.111563 5.753391
O 99.480225 -2.299391 5.097487
C 100.265833 -3.285205 5.747512
H 94.069191 0.006439 -0.154002
H 94.236851 -0.784461 2.540828
H 96.189104 -0.852707 4.427597
H 97.929968 0.123037 0.721687
H 101.565528 0.167361 4.363002
H 103.311687 0.275005 2.494407
H 102.950825 -1.097814 -2.768478
H 100.991582 -1.015237 -4.645044
H 99.039154 3.260473 -3.185910
H 98.314070 4.265424 -4.455954
H 97.577553 2.715657 -4.051179
H 99.432880 2.616452 -7.615001
H 98.653387 0.793339 -9.110936
H 97.723338 -1.272674 -8.148921
H 97.600084 -3.844004 -5.513943
H 97.030303 -3.142966 -7.029562
H 98.777339 -3.072384 -6.584427
H 95.737081 0.489884 -4.579718
H 94.019610 0.338178 -2.639985
H 99.456117 0.461059 -1.024717
H 99.473732 3.938367 4.759701
H 98.780640 3.308087 3.261474
H 100.093630 2.436398 4.062009
H 98.408099 2.252414 7.495057
H 99.062695 0.294029 8.863596
H 99.548022 -1.856260 7.774571
H 99.690055 -3.778919 6.533016
H 100.539993 -4.040861 5.008559
H 101.190875 -2.861590 6.154440
C 171.934120 -0.026080 -0.072953
C 171.206736 -0.343231 -1.419966
C 171.808015 -0.799615 -2.572431
C 170.787701 -0.921105 -3.549706
C 169.606847 -0.505318 -2.973626
N 169.863149 -0.212282 -1.656319
C 168.188766 -0.420146 -3.682239
C 167.054749 -0.297017 -2.934314
C 165.742857 -0.200122 -3.542217
C 164.841149 -0.053405 -2.579494
N 166.860338 -0.217385 -1.579762
C 165.526215 -0.072699 -1.301227
C 164.865935 0.040689 -0.119036
C 165.649732 -0.029192 1.261010
C 165.137766 -0.474030 2.463819
C 166.159618 -0.349171 3.438132
C 167.263498 0.172098 2.805688
C 168.666009 0.498185 3.484189
C 168.672950 0.841687 4.937832
C 168.180895 2.077270 5.406277
O 167.686556 3.098165 4.636795
C 168.567728 3.577706 3.620883
C 168.079434 2.325490 6.782924
C 168.508809 1.378948 7.709536
C 169.024697 0.164456 7.263715
C 169.088396 -0.120858 5.893131
O 169.593090 -1.310582 5.426020
C 169.346054 -2.466831 6.221158
C 169.789161 0.456774 2.720144
C 171.120189 0.668592 3.260271
C 172.003829 0.500116 2.279676
C 171.269514 0.202020 1.074654
N 169.942710 0.212113 1.383542
N 166.962302 0.310053 1.468968
C 168.151485 -0.437312 -5.176461
C 168.452027 0.714007 -5.938020
O 168.915719 1.886849 -5.397897
C 167.902095 2.623868 -4.718473
C 168.419359 0.681441 -7.336971
C 168.061294 -0.486406 -8.002759
C 167.774940 -1.638507 -7.269926
C 167.820078 -1.626431 -5.866539
O 167.614676 -2.751593 -5.108149
C 166.829068 -3.791034 -5.668436
H 173.025710 0.009665 -0.081178
H 172.858050 -1.016478 -2.695496
H 170.905797 -1.251330 -4.568835
H 169.164933 0.048357 -0.963747
H 165.529373 -0.229547 -4.594713
H 163.783214 0.042942 -2.742961
H 164.144076 -0.859024 2.620717
H 166.103319 -0.610798 4.482626
H 168.055747 3.519103 2.651047
H 168.780831 4.632444 3.827232
H 169.517348 3.052950 3.561111
H 167.662021 3.269335 7.119741
H 168.441514 1.585673 8.771058
H 169.371563 -0.557328 7.995541
H 169.494817 -3.351631 5.598308
H 170.064598 -2.519291 7.045985
H 168.317562 -2.488356 6.596352
H 171.357820 0.882646 4.284436
H 173.075291 0.559976 2.365722
H 167.638784 0.539514 0.745917
H 167.621169 3.491595 -5.323382
H 168.314261 2.996295 -3.775281
H 167.001271 2.057219 -4.495583
H 168.686802 1.570322 -7.898905
H 168.032206 -0.501428 -9.088872
H 167.546879 -2.546972 -7.813934
H 167.404846 -4.352288 -6.407196
H 166.554908 -4.478373 -4.865546
H 165.904026 -3.405070 -6.111236
C 104.640451 0.040689 -0.119036
C 105.862368 0.040689 -0.119036
C 115.958867 0.040689 -0.119036
C 117.180785 0.040689 -0.119036
C 127.277284 0.040689 -0.119036
C 128.499201 0.040689 -0.119036
C 138.595700 0.040689 -0.119036
C 139.817617 0.040689 -0.119036
C 149.914116 0.040689 -0.119036
C 151.136034 0.040689 -0.119036
C 161.232532 0.040689 -0.119036
C 162.454450 0.040689 -0.119036
C 107.374018 -0.017858 0.052244
C 108.165181 1.238526 0.615628
C 107.636288 2.272838 1.359317
C 108.671180 3.220356 1.545964
C 109.805879 2.733795 0.933467
N 109.504847 1.495461 0.423112
C 111.213327 3.467128 0.837408
C 112.345331 2.745640 0.606119
C 113.646080 3.374161 0.484586
C 114.556185 2.427339 0.304385
N 112.550498 1.400568 0.448815
C 113.883083 1.145400 0.260523
C 114.552269 -0.017858 0.052244
C 113.750663 -1.381554 -0.050734
C 114.249454 -2.652594 0.180964
C 113.213569 -3.574727 -0.104135
C 112.114492 -2.837070 -0.508613
C 110.719711 -3.422687 -0.986868
C 110.725840 -4.769527 -1.636866
C 110.361921 -5.901567 -0.858371
O 110.037450 -5.685126 0.457569
C 109.098111 -6.575918 1.041433
C 110.404216 -7.191854 -1.405995
C 110.814522 -7.380320 -2.717078
C 111.179582 -6.280140 -3.485318
C 111.126435 -4.975495 -2.974066
O 111.537019 -4.048163 -3.902212
C 110.866675 -2.786807 -3.886183
C 109.582201 -2.694336 -0.816855
C 108.278188 -3.202847 -1.196389
C 107.365509 -2.285449 -0.902993
C 108.042902 -1.134448 -0.336843
N 109.379544 -1.437097 -0.315242
N 112.429863 -1.504815 -0.408186
C 111.242691 4.951586 0.989203
C 111.309467 5.788112 -0.143582
O 111.369791 5.229494 -1.397786
C 110.234709 5.585087 -2.190002
C 111.378829 7.182709 -0.008789
C 111.347166 7.768353 1.254612
C 111.240724 6.962951 2.386446
C 111.207728 5.568480 2.258692
O 111.046951 4.863384 3.424004
C 112.282937 4.287983 3.853796
H 106.616547 2.357070 1.713091
H 108.600110 4.159246 2.071770
H 110.175348 0.863030 -0.010980
H 113.850046 4.426826 0.543997
H 115.609198 2.599377 0.193671
H 115.252551 -2.895215 0.505964
H 113.265400 -4.654358 -0.036259
H 108.698747 -6.103892 1.946076
H 109.593033 -7.507341 1.344667
H 108.248751 -6.775900 0.371954
H 110.158351 -8.061550 -0.809567
H 110.864697 -8.378309 -3.140190
H 111.508451 -6.429010 -4.504655
H 110.871229 -2.443844 -4.936293
H 109.803095 -2.886154 -3.599118
H 111.408837 -2.043368 -3.286837
H 108.078097 -4.161450 -1.635393
H 106.311439 -2.399197 -1.074584
H 111.784043 -0.728429 -0.530654
H 110.462682 6.499789 -2.753568
H 109.325183 5.737735 -1.596342
H 110.055339 4.779616 -2.916174
H 111.474589 7.809254 -0.889972
H 111.405673 8.847622 1.354767
H 111.206991 7.407325 3.373376
H 113.029372 4.174572 3.064413
H 112.065823 3.301730 4.284032
H 112.708916 4.920022 4.641786
C 118.692434 -0.017858 0.052244
C 119.483597 1.238526 0.615628
C 118.954705 2.272838 1.359317
C 119.989597 3.220356 1.545964
C 121.124295 2.733795 0.933467
N 120.823263 1.495461 0.423112
C 122.531744 3.467128 0.837408
C 123.663747 2.745640 0.606119
C 124.964496 3.374161 0.484586
C 125.874602 2.427339 0.304385
N 123.868914 1.400568 0.448815
C 125.201500 1.145400 0.260523
C 125.870685 -0.017858 0.052244
C 125.069079 -1.381554 -0.050734
C 125.567870 -2.652594 0.180964
C 124.531985 -3.574727 -0.104135
C 123.432908 -2.837070 -0.508613
C 122.038127 -3.422687 -0.986868
C 122.044257 -4.769527 -1.636866
C 121.680337 -5.901567 -0.858371
O 121.355867 -5.685126 0.457569
C 120.416527 -6.575918 1.041433
C 121.722633 -7.191854 -1.405995
C 122.132938 -7.380320 -2.717078
C 122.497998 -6.280140 -3.485318
C 122.444851 -4.975495 -2.974066
O 122.855435 -4.048163 -3.902212
C 122.185091 -2.786807 -3.886183
C 120.900617 -2.694336 -0.816855
C 119.596604 -3.202847 -1.196389
C 118.683925 -2.285449 -0.902993
C 119.361318 -1.134448 -0.336843
N 120.697960 -1.437097 -0.315242
N 123.748279 -1.504815 -0.408186
C 122.561107 4.951586 0.989203
C 122.627883 5.788112 -0.143582
O 122.688207 5.229494 -1.397786
C 121.553125 5.585087 -2.190002
C 122.697245 7.182709 -0.008789
C 122.665583 7.768353 1.254612
C 122.559141 6.962951 2.386446
C 122.526144 5.568480 2.258692
O 122.365367 4.863384 3.424004
C 123.601353 4.287983 3.853796
H 117.934964 2.357070 1.713091
H 119.918527 4.159246 2.071770
H 121.493764 0.863030 -0.010980
H 125.168462 4.426826 0.543997
H 126.927614 2.599377 0.193671
H 126.570968 -2.895215 0.505964
H 124.583817 -4.654358 -0.036259
H 120.017164 -6.103892 1.946076
H 120.911449 -7.507341 1.344667
H 119.567167 -6.775900 0.371954
H 121.476768 -8.061550 -0.809567
H 122.183113 -8.378309 -3.140190
H 122.826867 -6.429010 -4.504655
H 122.189645 -2.443844 -4.936293
H 121.121512 -2.886154 -3.599118
H 122.727253 -2.043368 -3.286837
H 119.396514 -4.161450 -1.635393
H 117.629855 -2.399197 -1.074584
H 123.102459 -0.728429 -0.530654
H 121.781098 6.499789 -2.753568
H 120.643600 5.737735 -1.596342
H 121.373755 4.779616 -2.916174
H 122.793006 7.809254 -0.889972
H 122.724089 8.847622 1.354767
H 122.525408 7.407325 3.373376
H 124.347789 4.174572 3.064413
H 123.384239 3.301730 4.284032
H 124.027332 4.920022 4.641786
C 130.010851 -0.017858 0.052244
C 130.802013 1.238526 0.615628
C 130.273121 2.272838 1.359317
C 131.308013 3.220356 1.545964
C 132.442712 2.733795 0.933467
N 132.141679 1.495461 0.423112
C 133.850160 3.467128 0.837408
C 134.982164 2.745640 0.606119
C 136.282913 3.374161 0.484586
C 137.193018 2.427339 0.304385
N 135.187331 1.400568 0.448815
C 136.519916 1.145400 0.260523
C 137.189101 -0.017858 0.052244
C 136.387496 -1.381554 -0.050734
C 136.886287 -2.652594 0.180964
C 135.850402 -3.574727 -0.104135
C 134.751325 -2.837070 -0.508613
C 133.356543 -3.422687 -0.986868
C 133.362673 -4.769527 -1.636866
C 132.998753 -5.901567 -0.858371
O 132.674283 -5.685126 0.457569
C 131.734943 -6.575918 1.041433
C 133.041049 -7.191854 -1.405995
C 133.451354 -7.380320 -2.717078
C 133.816415 -6.280140 -3.485318
C 133.763267 -4.975495 -2.974066
O 134.173852 -4.048163 -3.902212
C 133.503508 -2.786807 -3.886183
C 132.219034 -2.694336 -0.816855
C 130.915020 -3.202847 -1.196389
C 130.002341 -2.285449 -0.902993
C 130.679734 -1.134448 -0.336843
N 132.016376 -1.437097 -0.315242
N 135.066695 -1.504815 -0.408186
C 133.879524 4.951586 0.989203
C 133.946299 5.788112 -0.143582
O 134.006623 5.229494 -1.397786
C 132.871541 5.585087 -2.190002
C 134.015662 7.182709 -0.008789
C 133.983999 7.768353 1.254612
C 133.877557 6.962951 2.386446
C 133.844561 5.568480 2.258692
O 133.683784 4.863384 3.424004
C 134.919769 4.287983 3.853796
H 129.253380 2.357070 1.713091
H 131.236943 4.159246 2.071770
H 132.812181 0.863030 -0.010980
H 136.486879 4.426826 0.543997
H 138.246030 2.599377 0.193671
H 137.889384 -2.895215 0.505964
H 135.902233 -4.654358 -0.036259
H 131.335580 -6.103892 1.946076
H 132.229866 -7.507341 1.344667
H 130.885584 -6.775900 0.371954
H 132.795184 -8.061550 -0.809567
H 133.501530 -8.378309 -3.140190
H 134.145284 -6.429010 -4.504655
H 133.508061 -2.443844 -4.936293
H 132.439928 -2.886154 -3.599118
H 134.045669 -2.043368 -3.286837
H 130.714930 -4.161450 -1.635393
H 128.948271 -2.399197 -1.074584
H 134.420876 -0.728429 -0.530654
H 133.099514 6.499789 -2.753568
H 131.962016 5.737735 -1.596342
H 132.692171 4.779616 -2.916174
H 134.111422 7.809254 -0.889972
H 134.042506 8.847622 1.354767
H 133.843824 7.407325 3.373376
H 135.666205 4.174572 3.064413
H 134.702655 3.301730 4.284032
H 135.345749 4.920022 4.641786
C 141.329267 -0.017858 0.052244
C 142.120430 1.238526 0.615628
C 141.591537 2.272838 1.359317
C 142.626429 3.220356 1.545964
C 143.761128 2.733795 0.933467
N 143.460096 1.495461 0.423112
C 145.168576 3.467128 0.837408
C 146.300580 2.745640 0.606119
C 147.601329 3.374161 0.484586
C 148.511434 2.427339 0.304385
N 146.505747 1.400568 0.448815
C 147.838332 1.145400 0.260523
C 148.507518 -0.017858 0.052244
C 147.705912 -1.381554 -0.050734
C 148.204703 -2.652594 0.180964
C 147.168818 -3.574727 -0.104135
C 146.069741 -2.837070 -0.508613
C 144.674960 -3.422687 -0.986868
C 144.681089 -4.769527 -1.636866
C 144.317169 -5.901567 -0.858371
O 143.992699 -5.685126 0.457569
C 143.053360 -6.575918 1.041433
C 144.359465 -7.191854 -1.405995
C 144.769771 -7.380320 -2.717078
C 145.134831 -6.280140 -3.485318
C 145.081684 -4.975495 -2.974066
O 145.492268 -4.048163 -3.902212
C 144.821924 -2.786807 -3.886183
C 143.537450 -2.694336 -0.816855
C 142.233437 -3.202847 -1.196389
C 141.320758 -2.285449 -0.902993
C 141.998151 -1.134448 -0.336843
N 143.334793 -1.437097 -0.315242
N 146.385112 -1.504815 -0.408186
C 145.197940 4.951586 0.989203
C 145.264716 5.788112 -0.143582
O 145.325040 5.229494 -1.397786
C 144.189958 5.585087 -2.190002
C 145.334078 7.182709 -0.008789
C 145.302415 7.768353 1.254612
C 145.195973 6.962951 2.386446
C 145.162977 5.568480 2.258692
O 145.002200 4.863384 3.424004
C 146.238186 4.287983 3.853796
H 140.571796 2.357070 1.713091
H 142.555359 4.159246 2.071770
H 144.130597 0.863030 -0.010980
H 147.805295 4.426826 0.543997
H 149.564447 2.599377 0.193671
H 149.207800 -2.895215 0.505964
H 147.220649 -4.654358 -0.036259
H 142.653996 -6.103892 1.946076
H 143.548282 -7.507341 1.344667
H 142.204000 -6.775900 0.371954
H 144.113600 -8.061550 -0.809567
H 144.819946 -8.378309 -3.140190
H 145.463700 -6.429010 -4.504655
H 144.826477 -2.443844 -4.936293
H 143.758344 -2.886154 -3.599118
H 145.364086 -2.043368 -3.286837
H 142.033346 -4.161450 -1.635393
H 140.266688 -2.399197 -1.074584
H 145.739292 -0.728429 -0.530654
H 144.417930 6.499789 -2.753568
H 143.280432 5.737735 -1.596342
H 144.010588 4.779616 -2.916174
H 145.429838 7.809254 -0.889972
H 145.360922 8.847622 1.354767
H 145.162240 7.407325 3.373376
H 146.984621 4.174572 3.064413
H 146.021072 3.301730 4.284032
H 146.664165 4.920022 4.641786
C 152.647683 -0.017858 0.052244
C 153.438846 1.238526 0.615628
C 152.909954 2.272838 1.359317
C 153.944846 3.220356 1.545964
C 155.079544 2.733795 0.933467
N 154.778512 1.495461 0.423112
C 156.486993 3.467128 0.837408
C 157.618996 2.745640 0.606119
C 158.919745 3.374161 0.484586
C 159.829851 2.427339 0.304385
N 157.824163 1.400568 0.448815
C 159.156749 1.145400 0.260523
C 159.825934 -0.017858 0.052244
C 159.024328 -1.381554 -0.050734
C 159.523119 -2.652594 0.180964
C 158.487234 -3.574727 -0.104135
C 157.388157 -2.837070 -0.508613
C 155.993376 -3.422687 -0.986868
C 155.999506 -4.769527 -1.636866
C 155.635586 -5.901567 -0.858371
O 155.311116 -5.685126 0.457569
C 154.371776 -6.575918 1.041433
C 155.677882 -7.191854 -1.405995
C 156.088187 -7.380320 -2.717078
C 156.453247 -6.280140 -3.485318
C 156.400100 -4.975495 -2.974066
O 156.810684 -4.048163 -3.902212
C 156.140340 -2.786807 -3.886183
C 154.855866 -2.694336 -0.816855
C 153.551853 -3.202847 -1.196389
C 152.639174 -2.285449 -0.902993
C 153.316567 -1.134448 -0.336843
N 154.653209 -1.437097 -0.315242
N 157.703528 -1.504815 -0.408186
C 156.516356 4.951586 0.989203
C 156.583132 5.788112 -0.143582
O 156.643456 5.229494 -1.397786
C 155.508374 5.585087 -2.190002
C 156.652494 7.182709 -0.008789
C 156.620832 7.768353 1.254612
C 156.514390 6.962951 2.386446
C 156.481393 5.568480 2.258692
O 156.320616 4.863384 3.424004
C 157.556602 4.287983 3.853796
H 151.890213 2.357070 1.713091
H 153.873776 4.159246 2.071770
H 155.449013 0.863030 -0.010980
H 159.123711 4.426826 0.543997
H 160.882863 2.599377 0.193671
H 160.526217 -2.895215 0.505964
H 158.539066 -4.654358 -0.036259
H 153.972413 -6.103892 1.946076
H 154.866698 -7.507341 1.344667
H 153.522416 -6.775900 0.371954
H 155.432017 -8.061550 -0.809567
H 156.138362 -8.378309 -3.140190
H 156.782116 -6.429010 -4.504655
H 156.144894 -2.443844 -4.936293
H 155.076761 -2.886154 -3.599118
H 156.682502 -2.043368 -3.286837
H 153.351763 -4.161450 -1.635393
H 151.585104 -2.399197 -1.074584
H 157.057708 -0.728429 -0.530654
H 155.736347 6.499789 -2.753568
H 154.598848 5.737735 -1.596342
H 155.329004 4.779616 -2.916174
H 156.748255 7.809254 -0.889972
H 156.679338 8.847622 1.354767
H 156.480657 7.407325 3.373376
H 158.303038 4.174572 3.064413
H 157.339488 3.301730 4.284032
H 157.982581 4.920022 4.641786
