191

Cu 28.575895 0.038621 -0.010839
C 25.239149 -0.086377 -0.088534
C 25.902345 -1.237710 -0.231253
C 25.251639 -2.536241 -0.357287
C 26.192128 -3.449349 -0.511717
C 27.497545 -2.774716 -0.502888
N 27.320539 -1.369950 -0.315531
C 28.690014 -3.384775 -0.665502
C 28.737398 -4.846669 -0.894756
C 29.252698 -5.696108 0.093344
C 29.311458 -7.075191 -0.124100
C 28.858671 -7.627352 -1.336839
N 28.914536 -9.047542 -1.563480
O 28.470085 -9.584828 -2.750378
O 29.354172 -9.815782 -0.682367
C 28.349428 -6.768806 -2.327175
C 28.291392 -5.389612 -2.108443
C 29.983027 -2.651585 -0.636389
C 31.269607 -3.250677 -1.012948
C 32.203950 -2.336161 -0.848728
N 30.123777 -1.417642 -0.258782
C 31.520968 -1.142268 -0.365095
C 32.114386 0.009756 -0.012748
C 31.351092 1.184694 0.464943
C 31.883523 2.197568 1.136947
C 30.839933 3.186583 1.325076
C 29.739449 2.714126 0.750925
N 29.972352 1.425209 0.180024
C 28.457510 3.459296 0.656874
C 28.475005 4.926993 0.868720
C 27.812862 5.495495 1.966978
C 27.849954 6.876849 2.175474
C 28.554314 7.713448 1.292035
N 28.589084 9.135937 1.508707
O 27.983980 9.689648 2.614189
O 29.172807 9.889102 0.701495
C 29.224876 7.136967 0.197246
C 29.187920 5.755078 -0.009617
C 27.295389 2.833176 0.389677
C 25.985226 3.466092 0.246633
C 25.123772 2.486548 0.053464
C 25.875184 1.232414 0.058110
N 27.141699 1.422166 0.252436
H 24.155667 -0.114557 -0.082688
H 24.187495 -2.734118 -0.328144
H 26.004257 -4.509336 -0.623451
H 29.606654 -5.289308 1.032848
H 29.712025 -7.709151 0.655993
H 27.996983 -7.162483 -3.271921
H 27.900094 -4.743718 -2.884780
H 31.442472 -4.258759 -1.366875
H 33.259543 -2.475426 -1.041705
H 32.910124 2.288820 1.464368
H 30.950087 4.143090 1.820232
H 27.271830 4.866984 2.664086
H 27.328012 7.289884 3.029150
H 29.783144 7.753239 -0.495064
H 29.714808 5.329291 -0.855090
H 25.741855 4.519656 0.286968
H 24.057246 2.604820 -0.086721
Cu 62.941781 -0.017719 -0.021801
C 66.278527 0.127291 -0.046959
C 65.615330 1.248139 0.252437
C 66.266037 2.499188 0.622495
C 65.325548 3.403582 0.821709
C 64.020130 2.774859 0.576934
N 64.197136 1.402332 0.223893
C 62.827662 3.401383 0.654932
C 62.780278 4.842580 0.990554
C 62.264977 5.259548 2.225068
C 62.206217 6.619547 2.540588
C 62.659004 7.586151 1.623366
N 62.603140 8.987707 1.945773
O 63.047590 9.930831 1.046930
O 62.163504 9.369516 3.050660
C 63.168247 7.161578 0.383364
C 63.226283 5.800993 0.068997
C 61.534649 2.710769 0.407005
C 60.248068 3.407346 0.282553
C 59.313725 2.497976 0.091886
N 61.393898 1.425265 0.294384
C 59.996707 1.209845 0.092573
C 59.403289 0.009756 -0.012748
C 60.166583 -1.258575 -0.010462
C 59.634153 -2.449525 0.232728
C 60.677742 -3.436924 0.036291
C 61.778227 -2.783653 -0.318819
N 61.545323 -1.374709 -0.364777
C 63.060166 -3.439192 -0.685416
C 63.042670 -4.879241 -1.039352
C 63.704814 -5.818068 -0.234386
C 63.667722 -7.176817 -0.559052
C 62.963362 -7.621126 -1.691728
N 62.928592 -9.021076 -2.024239
O 63.533695 -9.948899 -1.207030
O 62.344869 -9.416619 -3.054964
C 62.292800 -6.676203 -2.490485
C 62.329755 -5.317570 -2.164105
C 64.222287 -2.758564 -0.698349
C 65.532450 -3.291669 -1.068275
C 66.393903 -2.311160 -0.880062
C 65.642492 -1.150267 -0.405506
N 64.375977 -1.399040 -0.296507
H 67.362009 0.151223 -0.030973
H 67.330181 2.671701 0.723707
H 65.513419 4.428129 1.115579
H 61.911021 4.530152 2.943494
H 61.805651 6.914752 3.501476
H 63.520693 7.880774 -0.344842
H 63.617581 5.493316 -0.892883
H 60.075203 4.474588 0.332437
H 58.258132 2.699439 -0.034792
H 58.607551 -2.656889 0.502045
H 60.567588 -4.509308 0.136670
H 64.245845 -5.496798 0.647527
H 64.189663 -7.879811 0.077469
H 61.734531 -6.987925 -3.363362
H 61.802868 -4.605831 -2.788241
H 65.775820 -4.283490 -1.425926
H 67.460430 -2.368240 -1.054366
C 38.384902 0.010858 -0.004258
C 37.175963 -0.002597 -0.012705
C 35.754434 0.006223 -0.024688
C 34.542764 0.013661 -0.013826
C 39.801506 0.004183 -0.003725
C 41.022202 0.013661 -0.013826
C 54.340461 0.010858 -0.004258
C 53.131522 -0.002597 -0.012705
C 51.709993 0.006223 -0.024688
C 50.498323 0.013661 -0.013826
C 55.757065 0.004183 -0.003725
C 56.977761 0.013661 -0.013826
Cu 45.671758 0.056949 -0.034095
C 42.304563 -0.022621 0.028740
C 42.960682 -1.194157 0.117444
C 42.319587 -2.497143 0.305435
C 43.256780 -3.424594 0.298030
C 44.554713 -2.769756 0.106607
N 44.376913 -1.355524 -0.002553
C 45.739536 -3.411999 0.036653
C 45.771087 -4.889572 0.110588
C 46.249573 -5.526110 1.263635
C 46.289141 -6.921591 1.333134
C 45.854263 -7.702495 0.245745
N 45.893663 -9.139892 0.312811
O 45.519092 -9.900027 -0.771368
O 46.249158 -9.720565 1.360522
C 45.380604 -7.056466 -0.911188
C 45.341178 -5.661102 -0.977678
C 47.039087 -2.708522 -0.105150
C 48.311638 -3.391035 -0.371355
C 49.264029 -2.480554 -0.377234
N 47.204718 -1.430837 0.043264
C 48.605796 -1.206860 -0.116130
C 49.220681 -0.022621 0.028740
C 48.470811 1.227430 0.275193
C 49.006817 2.340658 0.758640
C 47.974274 3.359172 0.736527
C 46.878730 2.799377 0.236578
N 47.102122 1.425551 -0.077222
C 45.621522 3.529693 -0.056865
C 45.678702 5.004727 -0.207149
C 46.461383 5.578110 -1.219044
C 46.532848 6.967303 -1.355159
C 45.825913 7.808011 -0.477525
N 45.897834 9.238244 -0.623211
O 46.632244 9.801258 -1.642376
O 45.288422 9.990784 0.165886
C 45.050000 7.228408 0.542840
C 44.980318 5.839219 0.678351
C 44.449166 2.882054 -0.201528
C 43.170812 3.490863 -0.555258
C 42.282090 2.518257 -0.528651
C 42.981822 1.280694 -0.165928
N 44.248671 1.485646 0.023218
H 41.264165 -2.698429 0.431549
H 43.071120 -4.483457 0.422757
H 46.588393 -4.941216 2.109602
H 46.663223 -7.389614 2.235833
H 45.040794 -7.629408 -1.764847
H 44.977813 -5.180557 -1.877251
H 48.463488 -4.450294 -0.533175
H 50.316028 -2.672439 -0.541761
H 50.030397 2.479891 1.079876
H 48.090686 4.392679 1.035953
H 47.013235 4.947761 -1.905586
H 47.142139 7.383321 -2.146789
H 44.497988 7.848891 1.237162
H 44.384135 5.412525 1.475467
H 42.965647 4.524280 -0.803086
H 41.229893 2.635909 -0.750177
