 xtb: 6.5.1 (b24c23e)
          07302208173D

191226  0     0  0            999 V2000
   29.7086   -0.0099   -0.0430 Cu  0  0  0  0  0  0  0  0  0  0  0  0
   26.3013   -0.0356   -0.0934 C   0  0  0  0  0  0  0  0  0  0  0  0
   26.9377   -1.2518   -0.2872 C   0  0  0  0  0  0  0  0  0  0  0  0
   26.2634   -2.5062   -0.4632 C   0  0  0  0  0  0  0  0  0  0  0  0
   27.2227   -3.4513   -0.6180 C   0  0  0  0  0  0  0  0  0  0  0  0
   28.4927   -2.7793   -0.5508 C   0  0  0  0  0  0  0  0  0  0  0  0
   28.2889   -1.4466   -0.3413 N   0  0  0  0  0  0  0  0  0  0  0  0
   29.7394   -3.4021   -0.6543 C   0  0  0  0  0  0  0  0  0  0  0  0
   29.7467   -4.8619   -0.9119 C   0  0  0  0  0  0  0  0  0  0  0  0
   30.3113   -5.7413    0.0168 C   0  0  0  0  0  0  0  0  0  0  0  0
   30.3001   -7.1056   -0.2098 C   0  0  0  0  0  0  0  0  0  0  0  0
   29.7247   -7.5950   -1.3791 C   0  0  0  0  0  0  0  0  0  0  0  0
   29.7045   -9.0269   -1.6193 N   0  0  0  0  0  0  0  0  0  0  0  0
   29.1911   -9.4143   -2.6377 O   0  0  0  0  0  0  0  0  0  0  0  0
   30.2006   -9.7396   -0.7848 O   0  0  0  0  0  0  0  0  0  0  0  0
   29.1649   -6.7360   -2.3206 C   0  0  0  0  0  0  0  0  0  0  0  0
   29.1764   -5.3741   -2.0815 C   0  0  0  0  0  0  0  0  0  0  0  0
   30.9736   -2.7596   -0.5323 C   0  0  0  0  0  0  0  0  0  0  0  0
   32.2507   -3.3925   -0.7042 C   0  0  0  0  0  0  0  0  0  0  0  0
   33.1960   -2.4352   -0.5261 C   0  0  0  0  0  0  0  0  0  0  0  0
   31.1606   -1.4296   -0.2649 N   0  0  0  0  0  0  0  0  0  0  0  0
   32.5044   -1.2114   -0.2522 C   0  0  0  0  0  0  0  0  0  0  0  0
   33.1401    0.0187   -0.0062 C   0  0  0  0  0  0  0  0  0  0  0  0
   32.4791    1.2369    0.2315 C   0  0  0  0  0  0  0  0  0  0  0  0
   33.1443    2.4703    0.5267 C   0  0  0  0  0  0  0  0  0  0  0  0
   32.1797    3.4106    0.6905 C   0  0  0  0  0  0  0  0  0  0  0  0
   30.9172    2.7581    0.4864 C   0  0  0  0  0  0  0  0  0  0  0  0
   31.1319    1.4327    0.2168 N   0  0  0  0  0  0  0  0  0  0  0  0
   29.6701    3.3803    0.5796 C   0  0  0  0  0  0  0  0  0  0  0  0
   29.6463    4.8382    0.8462 C   0  0  0  0  0  0  0  0  0  0  0  0
   29.0328    5.3327    2.0014 C   0  0  0  0  0  0  0  0  0  0  0  0
   28.9909    6.6926    2.2488 C   0  0  0  0  0  0  0  0  0  0  0  0
   29.5638    7.5674    1.3300 C   0  0  0  0  0  0  0  0  0  0  0  0
   29.5119    8.9970    1.5787 N   0  0  0  0  0  0  0  0  0  0  0  0
   28.9606    9.3687    2.5829 O   0  0  0  0  0  0  0  0  0  0  0  0
   30.0202    9.7238    0.7638 O   0  0  0  0  0  0  0  0  0  0  0  0
   30.1821    7.0958    0.1754 C   0  0  0  0  0  0  0  0  0  0  0  0
   30.2232    5.7335   -0.0596 C   0  0  0  0  0  0  0  0  0  0  0  0
   28.4367    2.7389    0.4373 C   0  0  0  0  0  0  0  0  0  0  0  0
   27.1553    3.3918    0.4676 C   0  0  0  0  0  0  0  0  0  0  0  0
   26.2155    2.4332    0.2795 C   0  0  0  0  0  0  0  0  0  0  0  0
   26.9135    1.1895    0.1211 C   0  0  0  0  0  0  0  0  0  0  0  0
   28.2593    1.4041    0.2173 N   0  0  0  0  0  0  0  0  0  0  0  0
   25.2164   -0.0436   -0.1102 H   0  0  0  0  0  0  0  0  0  0  0  0
   25.1926   -2.6342   -0.4560 H   0  0  0  0  0  0  0  0  0  0  0  0
   27.0887   -4.5125   -0.7530 H   0  0  0  0  0  0  0  0  0  0  0  0
   30.7433   -5.3488    0.9299 H   0  0  0  0  0  0  0  0  0  0  0  0
   30.7263   -7.7956    0.5085 H   0  0  0  0  0  0  0  0  0  0  0  0
   28.7282   -7.1417   -3.2253 H   0  0  0  0  0  0  0  0  0  0  0  0
   28.7523   -4.6939   -2.8110 H   0  0  0  0  0  0  0  0  0  0  0  0
   32.4009   -4.4322   -0.9458 H   0  0  0  0  0  0  0  0  0  0  0  0
   34.2678   -2.5378   -0.5806 H   0  0  0  0  0  0  0  0  0  0  0  0
   34.2129    2.5898    0.6052 H   0  0  0  0  0  0  0  0  0  0  0  0
   32.3075    4.4510    0.9418 H   0  0  0  0  0  0  0  0  0  0  0  0
   28.5986    4.6405    2.7134 H   0  0  0  0  0  0  0  0  0  0  0  0
   28.5204    7.0846    3.1425 H   0  0  0  0  0  0  0  0  0  0  0  0
   30.6176    7.7978   -0.5254 H   0  0  0  0  0  0  0  0  0  0  0  0
   30.6885    5.3548   -0.9622 H   0  0  0  0  0  0  0  0  0  0  0  0
   27.0014    4.4503    0.6016 H   0  0  0  0  0  0  0  0  0  0  0  0
   25.1437    2.5454    0.2394 H   0  0  0  0  0  0  0  0  0  0  0  0
   61.8079    0.0488   -0.0164 Cu  0  0  0  0  0  0  0  0  0  0  0  0
   65.2146    0.0906   -0.0806 C   0  0  0  0  0  0  0  0  0  0  0  0
   64.5807    1.2910    0.2004 C   0  0  0  0  0  0  0  0  0  0  0  0
   65.2576    2.5197    0.5027 C   0  0  0  0  0  0  0  0  0  0  0  0
   64.3003    3.4547    0.7186 C   0  0  0  0  0  0  0  0  0  0  0  0
   63.0287    2.8073    0.5365 C   0  0  0  0  0  0  0  0  0  0  0  0
   63.2298    1.4927    0.2315 N   0  0  0  0  0  0  0  0  0  0  0  0
   61.7832    3.4251    0.6777 C   0  0  0  0  0  0  0  0  0  0  0  0
   61.7786    4.8754    0.9842 C   0  0  0  0  0  0  0  0  0  0  0  0
   61.2184    5.3441    2.1764 C   0  0  0  0  0  0  0  0  0  0  0  0
   61.2330    6.6939    2.4772 C   0  0  0  0  0  0  0  0  0  0  0  0
   61.8070    7.5846    1.5744 C   0  0  0  0  0  0  0  0  0  0  0  0
   61.8311    9.0021    1.8881 N   0  0  0  0  0  0  0  0  0  0  0  0
   62.3441    9.7417    1.0878 O   0  0  0  0  0  0  0  0  0  0  0  0
   61.3393    9.3511    2.9306 O   0  0  0  0  0  0  0  0  0  0  0  0
   62.3619    7.1397    0.3778 C   0  0  0  0  0  0  0  0  0  0  0  0
   62.3472    5.7873    0.0896 C   0  0  0  0  0  0  0  0  0  0  0  0
   60.5479    2.7847    0.5558 C   0  0  0  0  0  0  0  0  0  0  0  0
   59.2718    3.4378    0.6344 C   0  0  0  0  0  0  0  0  0  0  0  0
   58.3248    2.4837    0.4486 C   0  0  0  0  0  0  0  0  0  0  0  0
   60.3586    1.4505    0.3123 N   0  0  0  0  0  0  0  0  0  0  0  0
   59.0143    1.2445    0.2486 C   0  0  0  0  0  0  0  0  0  0  0  0
   58.3766    0.0101    0.0312 C   0  0  0  0  0  0  0  0  0  0  0  0
   59.0356   -1.2110   -0.1971 C   0  0  0  0  0  0  0  0  0  0  0  0
   58.3690   -2.4666   -0.3700 C   0  0  0  0  0  0  0  0  0  0  0  0
   59.3318   -3.4007   -0.5752 C   0  0  0  0  0  0  0  0  0  0  0  0
   60.5944   -2.7183   -0.5383 C   0  0  0  0  0  0  0  0  0  0  0  0
   60.3819   -1.3873   -0.2965 N   0  0  0  0  0  0  0  0  0  0  0  0
   61.8400   -3.3300   -0.6987 C   0  0  0  0  0  0  0  0  0  0  0  0
   61.8606   -4.7817   -0.9969 C   0  0  0  0  0  0  0  0  0  0  0  0
   62.4876   -5.6726   -0.1201 C   0  0  0  0  0  0  0  0  0  0  0  0
   62.5269   -7.0260   -0.4012 C   0  0  0  0  0  0  0  0  0  0  0  0
   61.9377   -7.4932   -1.5727 C   0  0  0  0  0  0  0  0  0  0  0  0
   61.9876   -8.9115   -1.8795 N   0  0  0  0  0  0  0  0  0  0  0  0
   62.5519   -9.6320   -1.0964 O   0  0  0  0  0  0  0  0  0  0  0  0
   61.4625   -9.2806   -2.8986 O   0  0  0  0  0  0  0  0  0  0  0  0
   61.3053   -6.6239   -2.4570 C   0  0  0  0  0  0  0  0  0  0  0  0
   61.2671   -5.2729   -2.1636 C   0  0  0  0  0  0  0  0  0  0  0  0
   63.0743   -2.6811   -0.6063 C   0  0  0  0  0  0  0  0  0  0  0  0
   64.3535   -3.2975   -0.8360 C   0  0  0  0  0  0  0  0  0  0  0  0
   65.2950   -2.3380   -0.6613 C   0  0  0  0  0  0  0  0  0  0  0  0
   64.6000   -1.1255   -0.3357 C   0  0  0  0  0  0  0  0  0  0  0  0
   63.2544   -1.3607   -0.3135 N   0  0  0  0  0  0  0  0  0  0  0  0
   66.2993    0.1041   -0.1021 H   0  0  0  0  0  0  0  0  0  0  0  0
   66.3288    2.6349    0.5508 H   0  0  0  0  0  0  0  0  0  0  0  0
   64.4366    4.4891    0.9898 H   0  0  0  0  0  0  0  0  0  0  0  0
   60.7874    4.6389    2.8775 H   0  0  0  0  0  0  0  0  0  0  0  0
   60.8105    7.0654    3.4030 H   0  0  0  0  0  0  0  0  0  0  0  0
   62.7975    7.8539   -0.3106 H   0  0  0  0  0  0  0  0  0  0  0  0
   62.7676    5.4291   -0.8429 H   0  0  0  0  0  0  0  0  0  0  0  0
   59.1235    4.4933    0.7952 H   0  0  0  0  0  0  0  0  0  0  0  0
   57.2530    2.6003    0.4396 H   0  0  0  0  0  0  0  0  0  0  0  0
   57.3008   -2.6071   -0.3295 H   0  0  0  0  0  0  0  0  0  0  0  0
   59.2028   -4.4605   -0.7238 H   0  0  0  0  0  0  0  0  0  0  0  0
   62.9345   -5.2975    0.7932 H   0  0  0  0  0  0  0  0  0  0  0  0
   63.0081   -7.7239    0.2734 H   0  0  0  0  0  0  0  0  0  0  0  0
   60.8569   -7.0125   -3.3634 H   0  0  0  0  0  0  0  0  0  0  0  0
   60.7911   -4.5839   -2.8516 H   0  0  0  0  0  0  0  0  0  0  0  0
   64.5050   -4.3291   -1.1095 H   0  0  0  0  0  0  0  0  0  0  0  0
   66.3659   -2.4267   -0.7516 H   0  0  0  0  0  0  0  0  0  0  0  0
   38.3439    0.0436   -0.0011 C   0  0  0  0  0  0  0  0  0  0  0  0
   37.1157    0.0412    0.0048 C   0  0  0  0  0  0  0  0  0  0  0  0
   35.7705    0.0365    0.0049 C   0  0  0  0  0  0  0  0  0  0  0  0
   34.5466    0.0308    0.0018 C   0  0  0  0  0  0  0  0  0  0  0  0
   39.6889    0.0409   -0.0022 C   0  0  0  0  0  0  0  0  0  0  0  0
   40.9129    0.0369   -0.0050 C   0  0  0  0  0  0  0  0  0  0  0  0
   54.4012   -0.0172    0.0432 C   0  0  0  0  0  0  0  0  0  0  0  0
   53.1728   -0.0193    0.0401 C   0  0  0  0  0  0  0  0  0  0  0  0
   51.8278   -0.0223    0.0301 C   0  0  0  0  0  0  0  0  0  0  0  0
   50.6038   -0.0178    0.0237 C   0  0  0  0  0  0  0  0  0  0  0  0
   55.7463   -0.0115    0.0425 C   0  0  0  0  0  0  0  0  0  0  0  0
   56.9701   -0.0033    0.0406 C   0  0  0  0  0  0  0  0  0  0  0  0
   45.7584    0.0093   -0.0047 Cu  0  0  0  0  0  0  0  0  0  0  0  0
   42.3189    0.0294   -0.0081 C   0  0  0  0  0  0  0  0  0  0  0  0
   42.9611   -1.2204    0.0583 C   0  0  0  0  0  0  0  0  0  0  0  0
   42.2768   -2.4734    0.1703 C   0  0  0  0  0  0  0  0  0  0  0  0
   43.2275   -3.4415    0.1993 C   0  0  0  0  0  0  0  0  0  0  0  0
   44.4997   -2.7842    0.0963 C   0  0  0  0  0  0  0  0  0  0  0  0
   44.3048   -1.4314    0.0201 N   0  0  0  0  0  0  0  0  0  0  0  0
   45.7384   -3.4303    0.1023 C   0  0  0  0  0  0  0  0  0  0  0  0
   45.7291   -4.9122    0.1480 C   0  0  0  0  0  0  0  0  0  0  0  0
   46.3073   -5.5890    1.2261 C   0  0  0  0  0  0  0  0  0  0  0  0
   46.2973   -6.9711    1.2756 C   0  0  0  0  0  0  0  0  0  0  0  0
   45.7090   -7.6834    0.2344 C   0  0  0  0  0  0  0  0  0  0  0  0
   45.6981   -9.1348    0.2800 N   0  0  0  0  0  0  0  0  0  0  0  0
   45.1744   -9.7175   -0.6347 O   0  0  0  0  0  0  0  0  0  0  0  0
   46.2112   -9.6667    1.2310 O   0  0  0  0  0  0  0  0  0  0  0  0
   45.1307   -7.0289   -0.8495 C   0  0  0  0  0  0  0  0  0  0  0  0
   45.1409   -5.6465   -0.8863 C   0  0  0  0  0  0  0  0  0  0  0  0
   46.9847   -2.7997    0.0707 C   0  0  0  0  0  0  0  0  0  0  0  0
   48.2494   -3.4767    0.0127 C   0  0  0  0  0  0  0  0  0  0  0  0
   49.2114   -2.5197   -0.0127 C   0  0  0  0  0  0  0  0  0  0  0  0
   47.1952   -1.4472    0.0644 N   0  0  0  0  0  0  0  0  0  0  0  0
   48.5414   -1.2544    0.0193 C   0  0  0  0  0  0  0  0  0  0  0  0
   49.1980   -0.0103    0.0133 C   0  0  0  0  0  0  0  0  0  0  0  0
   48.5556    1.2410   -0.0035 C   0  0  0  0  0  0  0  0  0  0  0  0
   49.2393    2.4989    0.0292 C   0  0  0  0  0  0  0  0  0  0  0  0
   48.2887    3.4665   -0.0141 C   0  0  0  0  0  0  0  0  0  0  0  0
   47.0171    2.8034   -0.0816 C   0  0  0  0  0  0  0  0  0  0  0  0
   47.2122    1.4487   -0.0648 N   0  0  0  0  0  0  0  0  0  0  0  0
   45.7785    3.4483   -0.1283 C   0  0  0  0  0  0  0  0  0  0  0  0
   45.7883    4.9296   -0.1891 C   0  0  0  0  0  0  0  0  0  0  0  0
   46.3829    5.5863   -1.2709 C   0  0  0  0  0  0  0  0  0  0  0  0
   46.3917    6.9676   -1.3365 C   0  0  0  0  0  0  0  0  0  0  0  0
   45.8057    7.6997   -0.3078 C   0  0  0  0  0  0  0  0  0  0  0  0
   45.8136    9.1504   -0.3707 N   0  0  0  0  0  0  0  0  0  0  0  0
   46.3424    9.6644   -1.3230 O   0  0  0  0  0  0  0  0  0  0  0  0
   45.2928    9.7508    0.5342 O   0  0  0  0  0  0  0  0  0  0  0  0
   45.2117    7.0656    0.7798 C   0  0  0  0  0  0  0  0  0  0  0  0
   45.2032    5.6836    0.8326 C   0  0  0  0  0  0  0  0  0  0  0  0
   44.5322    2.8170   -0.1236 C   0  0  0  0  0  0  0  0  0  0  0  0
   43.2679    3.4883   -0.2334 C   0  0  0  0  0  0  0  0  0  0  0  0
   42.3059    2.5316   -0.1986 C   0  0  0  0  0  0  0  0  0  0  0  0
   42.9755    1.2715   -0.0783 C   0  0  0  0  0  0  0  0  0  0  0  0
   44.3215    1.4671   -0.0396 N   0  0  0  0  0  0  0  0  0  0  0  0
   41.2062   -2.5876    0.2271 H   0  0  0  0  0  0  0  0  0  0  0  0
   43.0832   -4.5052    0.2972 H   0  0  0  0  0  0  0  0  0  0  0  0
   46.7519   -5.0225    2.0359 H   0  0  0  0  0  0  0  0  0  0  0  0
   46.7369   -7.5043    2.1100 H   0  0  0  0  0  0  0  0  0  0  0  0
   44.6829   -7.6067   -1.6492 H   0  0  0  0  0  0  0  0  0  0  0  0
   44.7040   -5.1251   -1.7300 H   0  0  0  0  0  0  0  0  0  0  0  0
   48.3814   -4.5460   -0.0197 H   0  0  0  0  0  0  0  0  0  0  0  0
   50.2808   -2.6494   -0.0580 H   0  0  0  0  0  0  0  0  0  0  0  0
   50.3095    2.6171    0.0858 H   0  0  0  0  0  0  0  0  0  0  0  0
   48.4323    4.5345    0.0127 H   0  0  0  0  0  0  0  0  0  0  0  0
   46.8256    5.0044   -2.0709 H   0  0  0  0  0  0  0  0  0  0  0  0
   46.8440    7.4852   -2.1739 H   0  0  0  0  0  0  0  0  0  0  0  0
   44.7664    7.6585    1.5696 H   0  0  0  0  0  0  0  0  0  0  0  0
   44.7541    5.1780    1.6795 H   0  0  0  0  0  0  0  0  0  0  0  0
   43.1361    4.5529   -0.3386 H   0  0  0  0  0  0  0  0  0  0  0  0
   41.2368    2.6578   -0.2578 H   0  0  0  0  0  0  0  0  0  0  0  0
  2  3  4  0  0  0  0
  3  4  1  0  0  0  0
  4  5  2  0  0  0  0
  5  6  4  0  0  0  0
  1  7  1  0  0  0  0
  3  7  4  0  0  0  0
  6  7  4  0  0  0  0
  6  8  4  0  0  0  0
  8  9  1  0  0  0  0
  9 10  4  0  0  0  0
 10 11  4  0  0  0  0
 11 12  4  0  0  0  0
 12 13  1  0  0  0  0
 13 14  2  0  0  0  0
 13 15  2  0  0  0  0
 14 15  1  0  0  0  0
 12 16  4  0  0  0  0
  9 17  4  0  0  0  0
 16 17  4  0  0  0  0
  8 18  4  0  0  0  0
 18 19  4  0  0  0  0
 19 20  2  0  0  0  0
  1 21  1  0  0  0  0
 18 21  4  0  0  0  0
 20 22  4  0  0  0  0
 21 22  4  0  0  0  0
 22 23  4  0  0  0  0
 23 24  4  0  0  0  0
 24 25  4  0  0  0  0
 25 26  2  0  0  0  0
 26 27  4  0  0  0  0
  1 28  1  0  0  0  0
 24 28  4  0  0  0  0
 27 28  4  0  0  0  0
 27 29  4  0  0  0  0
 29 30  1  0  0  0  0
 30 31  4  0  0  0  0
 31 32  4  0  0  0  0
 32 33  4  0  0  0  0
 33 34  1  0  0  0  0
 34 35  2  0  0  0  0
 34 36  2  0  0  0  0
 35 36  1  0  0  0  0
 33 37  4  0  0  0  0
 30 38  4  0  0  0  0
 37 38  4  0  0  0  0
 29 39  4  0  0  0  0
 39 40  4  0  0  0  0
 40 41  2  0  0  0  0
  2 42  4  0  0  0  0
 41 42  1  0  0  0  0
  1 43  1  0  0  0  0
 39 43  4  0  0  0  0
 42 43  4  0  0  0  0
  2 44  1  0  0  0  0
  4 45  1  0  0  0  0
  5 46  1  0  0  0  0
 10 47  1  0  0  0  0
 11 48  1  0  0  0  0
 16 49  1  0  0  0  0
 17 50  1  0  0  0  0
 19 51  1  0  0  0  0
 20 52  1  0  0  0  0
 25 53  1  0  0  0  0
 26 54  1  0  0  0  0
 31 55  1  0  0  0  0
 32 56  1  0  0  0  0
 37 57  1  0  0  0  0
 38 58  1  0  0  0  0
 40 59  1  0  0  0  0
 41 60  1  0  0  0  0
 62 63  4  0  0  0  0
 63 64  1  0  0  0  0
 64 65  2  0  0  0  0
 65 66  4  0  0  0  0
 61 67  1  0  0  0  0
 63 67  4  0  0  0  0
 66 67  4  0  0  0  0
 66 68  4  0  0  0  0
 68 69  1  0  0  0  0
 69 70  4  0  0  0  0
 70 71  4  0  0  0  0
 71 72  4  0  0  0  0
 72 73  1  0  0  0  0
 73 74  2  0  0  0  0
 73 75  2  0  0  0  0
 74 75  1  0  0  0  0
 72 76  4  0  0  0  0
 69 77  4  0  0  0  0
 76 77  4  0  0  0  0
 68 78  4  0  0  0  0
 78 79  4  0  0  0  0
 79 80  2  0  0  0  0
 61 81  1  0  0  0  0
 78 81  4  0  0  0  0
 80 82  4  0  0  0  0
 81 82  4  0  0  0  0
 82 83  4  0  0  0  0
 83 84  4  0  0  0  0
 84 85  4  0  0  0  0
 85 86  2  0  0  0  0
 86 87  4  0  0  0  0
 61 88  1  0  0  0  0
 84 88  4  0  0  0  0
 87 88  4  0  0  0  0
 87 89  4  0  0  0  0
 89 90  1  0  0  0  0
 90 91  4  0  0  0  0
 91 92  4  0  0  0  0
 92 93  4  0  0  0  0
 93 94  1  0  0  0  0
 94 95  2  0  0  0  0
 94 96  2  0  0  0  0
 95 96  1  0  0  0  0
 93 97  4  0  0  0  0
 90 98  4  0  0  0  0
 97 98  4  0  0  0  0
 89 99  4  0  0  0  0
 99100  4  0  0  0  0
100101  2  0  0  0  0
 62102  4  0  0  0  0
101102  1  0  0  0  0
 61103  1  0  0  0  0
 99103  4  0  0  0  0
102103  4  0  0  0  0
 62104  1  0  0  0  0
 64105  1  0  0  0  0
 65106  1  0  0  0  0
 70107  1  0  0  0  0
 71108  1  0  0  0  0
 76109  1  0  0  0  0
 77110  1  0  0  0  0
 79111  1  0  0  0  0
 80112  1  0  0  0  0
 85113  1  0  0  0  0
 86114  1  0  0  0  0
 91115  1  0  0  0  0
 92116  1  0  0  0  0
 97117  1  0  0  0  0
 98118  1  0  0  0  0
100119  1  0  0  0  0
101120  1  0  0  0  0
121122  3  0  0  0  0
122123  4  0  0  0  0
 23124  4  0  0  0  0
123124  3  0  0  0  0
121125  4  0  0  0  0
125126  3  0  0  0  0
127128  3  0  0  0  0
128129  4  0  0  0  0
129130  3  0  0  0  0
127131  4  0  0  0  0
 83132  4  0  0  0  0
131132  3  0  0  0  0
126134  4  0  0  0  0
134135  4  0  0  0  0
135136  4  0  0  0  0
136137  2  0  0  0  0
137138  4  0  0  0  0
133139  1  0  0  0  0
135139  4  0  0  0  0
138139  4  0  0  0  0
138140  4  0  0  0  0
140141  1  0  0  0  0
141142  4  0  0  0  0
142143  4  0  0  0  0
143144  4  0  0  0  0
144145  1  0  0  0  0
145146  2  0  0  0  0
145147  2  0  0  0  0
146147  1  0  0  0  0
144148  4  0  0  0  0
141149  4  0  0  0  0
148149  4  0  0  0  0
140150  4  0  0  0  0
150151  4  0  0  0  0
151152  2  0  0  0  0
133153  1  0  0  0  0
150153  4  0  0  0  0
152154  4  0  0  0  0
153154  4  0  0  0  0
130155  4  0  0  0  0
154155  4  0  0  0  0
155156  4  0  0  0  0
156157  4  0  0  0  0
157158  2  0  0  0  0
158159  4  0  0  0  0
133160  1  0  0  0  0
156160  4  0  0  0  0
159160  4  0  0  0  0
159161  4  0  0  0  0
161162  1  0  0  0  0
162163  4  0  0  0  0
163164  4  0  0  0  0
164165  4  0  0  0  0
165166  1  0  0  0  0
166167  2  0  0  0  0
166168  2  0  0  0  0
167168  1  0  0  0  0
165169  4  0  0  0  0
162170  4  0  0  0  0
169170  4  0  0  0  0
161171  4  0  0  0  0
171172  4  0  0  0  0
172173  2  0  0  0  0
134174  4  0  0  0  0
173174  4  0  0  0  0
133175  1  0  0  0  0
171175  4  0  0  0  0
174175  4  0  0  0  0
136176  1  0  0  0  0
137177  1  0  0  0  0
142178  1  0  0  0  0
143179  1  0  0  0  0
148180  1  0  0  0  0
149181  1  0  0  0  0
151182  1  0  0  0  0
152183  1  0  0  0  0
157184  1  0  0  0  0
158185  1  0  0  0  0
163186  1  0  0  0  0
164187  1  0  0  0  0
169188  1  0  0  0  0
170189  1  0  0  0  0
172190  1  0  0  0  0
173191  1  0  0  0  0
M  END
