 xtb: 6.5.1 (b24c23e)
          07292217063D

236275  0     0  0            999 V2000
   52.7156   -0.3318   -0.6248 Fe  0  0  0  0  0  0  0  0  0  0  0  0
   49.5267   -0.2529   -1.7407 C   0  0  0  0  0  0  0  0  0  0  0  0
   50.0247    0.8874   -1.1416 C   0  0  0  0  0  0  0  0  0  0  0  0
   49.2579    2.0747   -0.9106 C   0  0  0  0  0  0  0  0  0  0  0  0
   50.0529    2.9200   -0.2101 C   0  0  0  0  0  0  0  0  0  0  0  0
   51.3165    2.2640   -0.0578 C   0  0  0  0  0  0  0  0  0  0  0  0
   51.2830    1.0203   -0.6132 N   0  0  0  0  0  0  0  0  0  0  0  0
   52.4543    2.8813    0.4726 C   0  0  0  0  0  0  0  0  0  0  0  0
   52.3285    4.1712    1.0298 C   0  0  0  0  0  0  0  0  0  0  0  0
   52.2192    5.2708    1.5316 C   0  0  0  0  0  0  0  0  0  0  0  0
   52.0985    6.5525    2.1157 C   0  0  0  0  0  0  0  0  0  0  0  0
   53.2015    7.1910    2.6949 C   0  0  0  0  0  0  0  0  0  0  0  0
   53.0321    8.4449    3.2545 C   0  0  0  0  0  0  0  0  0  0  0  0
   51.8642    9.0824    3.2703 N   0  0  0  0  0  0  0  0  0  0  0  0
   50.8109    8.4820    2.7222 C   0  0  0  0  0  0  0  0  0  0  0  0
   50.8735    7.2293    2.1381 C   0  0  0  0  0  0  0  0  0  0  0  0
   53.7249    2.3081    0.3929 C   0  0  0  0  0  0  0  0  0  0  0  0
   54.9345    3.0111    0.6878 C   0  0  0  0  0  0  0  0  0  0  0  0
   55.9549    2.1644    0.4025 C   0  0  0  0  0  0  0  0  0  0  0  0
   54.0005    1.0403   -0.0408 N   0  0  0  0  0  0  0  0  0  0  0  0
   55.3613    0.9340   -0.0206 C   0  0  0  0  0  0  0  0  0  0  0  0
   56.0865   -0.2495   -0.2077 C   0  0  0  0  0  0  0  0  0  0  0  0
   55.4693   -1.4960   -0.3741 C   0  0  0  0  0  0  0  0  0  0  0  0
   56.1704   -2.7415   -0.3423 C   0  0  0  0  0  0  0  0  0  0  0  0
   55.2379   -3.7168   -0.4797 C   0  0  0  0  0  0  0  0  0  0  0  0
   53.9783   -3.0587   -0.6397 C   0  0  0  0  0  0  0  0  0  0  0  0
   54.1322   -1.7014   -0.5504 N   0  0  0  0  0  0  0  0  0  0  0  0
   52.7960   -3.7203   -0.9745 C   0  0  0  0  0  0  0  0  0  0  0  0
   52.8043   -5.1295   -1.0435 C   0  0  0  0  0  0  0  0  0  0  0  0
   52.8079   -6.3419   -1.0973 C   0  0  0  0  0  0  0  0  0  0  0  0
   52.8155   -7.7538   -1.1678 C   0  0  0  0  0  0  0  0  0  0  0  0
   53.9822   -8.4862   -0.9189 C   0  0  0  0  0  0  0  0  0  0  0  0
   53.9380   -9.8663   -1.0053 C   0  0  0  0  0  0  0  0  0  0  0  0
   52.8334  -10.5406   -1.3146 N   0  0  0  0  0  0  0  0  0  0  0  0
   51.7200   -9.8517   -1.5518 C   0  0  0  0  0  0  0  0  0  0  0  0
   51.6580   -8.4708   -1.4926 C   0  0  0  0  0  0  0  0  0  0  0  0
   51.6269   -3.0405   -1.3348 C   0  0  0  0  0  0  0  0  0  0  0  0
   50.4755   -3.6778   -1.8989 C   0  0  0  0  0  0  0  0  0  0  0  0
   49.5905   -2.6940   -2.1918 C   0  0  0  0  0  0  0  0  0  0  0  0
   50.1884   -1.4643   -1.7653 C   0  0  0  0  0  0  0  0  0  0  0  0
   51.4446   -1.6929   -1.2624 N   0  0  0  0  0  0  0  0  0  0  0  0
   48.5198   -0.2172   -2.1413 H   0  0  0  0  0  0  0  0  0  0  0  0
   48.2383    2.2171   -1.2316 H   0  0  0  0  0  0  0  0  0  0  0  0
   49.8291    3.9097    0.1550 H   0  0  0  0  0  0  0  0  0  0  0  0
   54.1707    6.7072    2.7037 H   0  0  0  0  0  0  0  0  0  0  0  0
   53.8702    8.9632    3.7113 H   0  0  0  0  0  0  0  0  0  0  0  0
   49.8738    9.0304    2.7529 H   0  0  0  0  0  0  0  0  0  0  0  0
   49.9905    6.7766    1.7034 H   0  0  0  0  0  0  0  0  0  0  0  0
   54.9825    4.0267    1.0465 H   0  0  0  0  0  0  0  0  0  0  0  0
   57.0151    2.3354    0.4963 H   0  0  0  0  0  0  0  0  0  0  0  0
   57.2361   -2.8441   -0.2166 H   0  0  0  0  0  0  0  0  0  0  0  0
   55.3790   -4.7855   -0.4987 H   0  0  0  0  0  0  0  0  0  0  0  0
   54.9036   -7.9767   -0.6641 H   0  0  0  0  0  0  0  0  0  0  0  0
   54.8282  -10.4598   -0.8181 H   0  0  0  0  0  0  0  0  0  0  0  0
   50.8374  -10.4336   -1.8013 H   0  0  0  0  0  0  0  0  0  0  0  0
   50.7302   -7.9492   -1.6939 H   0  0  0  0  0  0  0  0  0  0  0  0
   50.3809   -4.7399   -2.0593 H   0  0  0  0  0  0  0  0  0  0  0  0
   48.6098   -2.7770   -2.6327 H   0  0  0  0  0  0  0  0  0  0  0  0
   84.2441   -0.1667    1.0191 Fe  0  0  0  0  0  0  0  0  0  0  0  0
   86.9433    0.3491    2.9827 C   0  0  0  0  0  0  0  0  0  0  0  0
   86.6123   -0.9563    2.6767 C   0  0  0  0  0  0  0  0  0  0  0  0
   87.3733   -2.0965    3.0913 C   0  0  0  0  0  0  0  0  0  0  0  0
   86.8202   -3.1743    2.4830 C   0  0  0  0  0  0  0  0  0  0  0  0
   85.6957   -2.6935    1.7383 C   0  0  0  0  0  0  0  0  0  0  0  0
   85.5842   -1.3411    1.8546 N   0  0  0  0  0  0  0  0  0  0  0  0
   84.7812   -3.5266    1.0836 C   0  0  0  0  0  0  0  0  0  0  0  0
   85.0506   -4.9101    1.0230 C   0  0  0  0  0  0  0  0  0  0  0  0
   85.2888   -6.0982    0.9549 C   0  0  0  0  0  0  0  0  0  0  0  0
   85.5606   -7.4834    0.8798 C   0  0  0  0  0  0  0  0  0  0  0  0
   84.6563   -8.3677    0.2798 C   0  0  0  0  0  0  0  0  0  0  0  0
   84.9680   -9.7148    0.2324 C   0  0  0  0  0  0  0  0  0  0  0  0
   86.0936  -10.2188    0.7321 N   0  0  0  0  0  0  0  0  0  0  0  0
   86.9585   -9.3847    1.3037 C   0  0  0  0  0  0  0  0  0  0  0  0
   86.7422   -8.0217    1.4025 C   0  0  0  0  0  0  0  0  0  0  0  0
   83.5680   -3.0579    0.5772 C   0  0  0  0  0  0  0  0  0  0  0  0
   82.5088   -3.9106    0.1351 C   0  0  0  0  0  0  0  0  0  0  0  0
   81.4543   -3.1051   -0.1453 C   0  0  0  0  0  0  0  0  0  0  0  0
   83.1788   -1.7466    0.5288 N   0  0  0  0  0  0  0  0  0  0  0  0
   81.8900   -1.7626    0.0824 C   0  0  0  0  0  0  0  0  0  0  0  0
   81.1282   -0.6333   -0.2499 C   0  0  0  0  0  0  0  0  0  0  0  0
   81.6733    0.6581   -0.2832 C   0  0  0  0  0  0  0  0  0  0  0  0
   81.0079    1.7875   -0.8536 C   0  0  0  0  0  0  0  0  0  0  0  0
   81.8826    2.8227   -0.8012 C   0  0  0  0  0  0  0  0  0  0  0  0
   83.0582    2.3321   -0.1512 C   0  0  0  0  0  0  0  0  0  0  0  0
   82.9213    1.0028    0.1455 N   0  0  0  0  0  0  0  0  0  0  0  0
   84.1265    3.1437    0.2332 C   0  0  0  0  0  0  0  0  0  0  0  0
   84.1281    4.4965   -0.1673 C   0  0  0  0  0  0  0  0  0  0  0  0
   84.1356    5.6578   -0.5197 C   0  0  0  0  0  0  0  0  0  0  0  0
   84.1393    7.0121   -0.9248 C   0  0  0  0  0  0  0  0  0  0  0  0
   83.1536    7.5155   -1.7819 C   0  0  0  0  0  0  0  0  0  0  0  0
   83.1999    8.8496   -2.1457 C   0  0  0  0  0  0  0  0  0  0  0  0
   84.1411    9.6876   -1.7187 N   0  0  0  0  0  0  0  0  0  0  0  0
   85.0818    9.2167   -0.9038 C   0  0  0  0  0  0  0  0  0  0  0  0
   85.1264    7.9001   -0.4813 C   0  0  0  0  0  0  0  0  0  0  0  0
   85.1440    2.6968    1.0846 C   0  0  0  0  0  0  0  0  0  0  0  0
   86.1083    3.5605    1.6964 C   0  0  0  0  0  0  0  0  0  0  0  0
   86.8408    2.7912    2.5384 C   0  0  0  0  0  0  0  0  0  0  0  0
   86.3508    1.4524    2.4014 C   0  0  0  0  0  0  0  0  0  0  0  0
   85.3012    1.4159    1.5185 N   0  0  0  0  0  0  0  0  0  0  0  0
   87.7793    0.5164    3.6528 H   0  0  0  0  0  0  0  0  0  0  0  0
   88.2304   -2.0560    3.7445 H   0  0  0  0  0  0  0  0  0  0  0  0
   87.1189   -4.2088    2.5413 H   0  0  0  0  0  0  0  0  0  0  0  0
   83.7279   -7.9992   -0.1394 H   0  0  0  0  0  0  0  0  0  0  0  0
   84.2849  -10.4236   -0.2268 H   0  0  0  0  0  0  0  0  0  0  0  0
   87.8663   -9.8297    1.7006 H   0  0  0  0  0  0  0  0  0  0  0  0
   87.4735   -7.3782    1.8764 H   0  0  0  0  0  0  0  0  0  0  0  0
   82.5702   -4.9853    0.0739 H   0  0  0  0  0  0  0  0  0  0  0  0
   80.4767   -3.3814   -0.5051 H   0  0  0  0  0  0  0  0  0  0  0  0
   80.0083    1.7734   -1.2566 H   0  0  0  0  0  0  0  0  0  0  0  0
   81.7472    3.8367   -1.1419 H   0  0  0  0  0  0  0  0  0  0  0  0
   82.3686    6.8676   -2.1526 H   0  0  0  0  0  0  0  0  0  0  0  0
   82.4482    9.2670   -2.8094 H   0  0  0  0  0  0  0  0  0  0  0  0
   85.8339    9.9279   -0.5745 H   0  0  0  0  0  0  0  0  0  0  0  0
   85.9105    7.5583    0.1835 H   0  0  0  0  0  0  0  0  0  0  0  0
   86.1861    4.6200    1.5112 H   0  0  0  0  0  0  0  0  0  0  0  0
   87.6562    3.0819    3.1816 H   0  0  0  0  0  0  0  0  0  0  0  0
   57.4874   -0.1987   -0.1185 C   0  0  0  0  0  0  0  0  0  0  0  0
   58.7016   -0.1450   -0.0347 C   0  0  0  0  0  0  0  0  0  0  0  0
   68.1415   -0.5818   -0.8068 C   0  0  0  0  0  0  0  0  0  0  0  0
   69.2920   -0.7964   -1.1543 C   0  0  0  0  0  0  0  0  0  0  0  0
   78.6341   -0.9730   -0.9843 C   0  0  0  0  0  0  0  0  0  0  0  0
   79.7975   -0.8142   -0.6555 C   0  0  0  0  0  0  0  0  0  0  0  0
   63.4941   -0.0272    0.2199 Fe  0  0  0  0  0  0  0  0  0  0  0  0
   60.0992   -0.0882    0.0872 C   0  0  0  0  0  0  0  0  0  0  0  0
   60.7578    1.0987   -0.2633 C   0  0  0  0  0  0  0  0  0  0  0  0
   60.0863    2.3056   -0.6290 C   0  0  0  0  0  0  0  0  0  0  0  0
   61.0485    3.2429   -0.8228 C   0  0  0  0  0  0  0  0  0  0  0  0
   62.3025    2.5882   -0.6191 C   0  0  0  0  0  0  0  0  0  0  0  0
   62.1094    1.2840   -0.2570 N   0  0  0  0  0  0  0  0  0  0  0  0
   63.5397    3.1721   -0.9101 C   0  0  0  0  0  0  0  0  0  0  0  0
   63.5663    4.5263   -1.3056 C   0  0  0  0  0  0  0  0  0  0  0  0
   63.5856    5.6918   -1.6436 C   0  0  0  0  0  0  0  0  0  0  0  0
   63.6053    7.0464   -2.0480 C   0  0  0  0  0  0  0  0  0  0  0  0
   64.8006    7.6795   -2.4080 C   0  0  0  0  0  0  0  0  0  0  0  0
   64.7633    9.0046   -2.8042 C   0  0  0  0  0  0  0  0  0  0  0  0
   63.6397    9.7148   -2.8614 N   0  0  0  0  0  0  0  0  0  0  0  0
   62.4993    9.1204   -2.5203 C   0  0  0  0  0  0  0  0  0  0  0  0
   62.4280    7.8009   -2.1103 C   0  0  0  0  0  0  0  0  0  0  0  0
   64.7333    2.4464   -0.9371 C   0  0  0  0  0  0  0  0  0  0  0  0
   65.9584    2.9437   -1.4793 C   0  0  0  0  0  0  0  0  0  0  0  0
   66.8467    1.9185   -1.4335 C   0  0  0  0  0  0  0  0  0  0  0  0
   64.8793    1.1469   -0.5361 N   0  0  0  0  0  0  0  0  0  0  0  0
   66.1719    0.8187   -0.8194 C   0  0  0  0  0  0  0  0  0  0  0  0
   66.8127   -0.3672   -0.4272 C   0  0  0  0  0  0  0  0  0  0  0  0
   66.1993   -1.2974    0.4293 C   0  0  0  0  0  0  0  0  0  0  0  0
   66.9040   -2.3357    1.1126 C   0  0  0  0  0  0  0  0  0  0  0  0
   66.0019   -2.9564    1.9144 C   0  0  0  0  0  0  0  0  0  0  0  0
   64.7427   -2.3233    1.6772 C   0  0  0  0  0  0  0  0  0  0  0  0
   64.8863   -1.2908    0.7890 N   0  0  0  0  0  0  0  0  0  0  0  0
   63.5250   -2.8117    2.1541 C   0  0  0  0  0  0  0  0  0  0  0  0
   63.5369   -3.9051    3.0455 C   0  0  0  0  0  0  0  0  0  0  0  0
   63.5429   -4.8343    3.8260 C   0  0  0  0  0  0  0  0  0  0  0  0
   63.5489   -5.9211    4.7303 C   0  0  0  0  0  0  0  0  0  0  0  0
   62.3545   -6.4911    5.1861 C   0  0  0  0  0  0  0  0  0  0  0  0
   62.4144   -7.5532    6.0707 C   0  0  0  0  0  0  0  0  0  0  0  0
   63.5593   -8.0657    6.5145 N   0  0  0  0  0  0  0  0  0  0  0  0
   64.6990   -7.5295    6.0859 C   0  0  0  0  0  0  0  0  0  0  0  0
   64.7487   -6.4662    5.2019 C   0  0  0  0  0  0  0  0  0  0  0  0
   62.2894   -2.3334    1.7034 C   0  0  0  0  0  0  0  0  0  0  0  0
   61.0424   -2.9846    1.9522 C   0  0  0  0  0  0  0  0  0  0  0  0
   60.0959   -2.2771    1.2845 C   0  0  0  0  0  0  0  0  0  0  0  0
   60.7659   -1.1733    0.6716 C   0  0  0  0  0  0  0  0  0  0  0  0
   62.1084   -1.2334    0.9146 N   0  0  0  0  0  0  0  0  0  0  0  0
   59.0170    2.4142   -0.7106 H   0  0  0  0  0  0  0  0  0  0  0  0
   60.9335    4.2772   -1.1048 H   0  0  0  0  0  0  0  0  0  0  0  0
   65.7378    7.1371   -2.3764 H   0  0  0  0  0  0  0  0  0  0  0  0
   65.6751    9.5214   -3.0895 H   0  0  0  0  0  0  0  0  0  0  0  0
   61.6020    9.7296   -2.5788 H   0  0  0  0  0  0  0  0  0  0  0  0
   61.4779    7.3550   -1.8421 H   0  0  0  0  0  0  0  0  0  0  0  0
   66.1018    3.9419   -1.8607 H   0  0  0  0  0  0  0  0  0  0  0  0
   67.8760    1.9080   -1.7528 H   0  0  0  0  0  0  0  0  0  0  0  0
   67.9579   -2.5357    1.0090 H   0  0  0  0  0  0  0  0  0  0  0  0
   66.1566   -3.7845    2.5873 H   0  0  0  0  0  0  0  0  0  0  0  0
   61.4005   -6.1040    4.8492 H   0  0  0  0  0  0  0  0  0  0  0  0
   61.5040   -8.0155    6.4409 H   0  0  0  0  0  0  0  0  0  0  0  0
   65.6139   -7.9724    6.4685 H   0  0  0  0  0  0  0  0  0  0  0  0
   65.6990   -6.0594    4.8779 H   0  0  0  0  0  0  0  0  0  0  0  0
   60.9219   -3.8762    2.5462 H   0  0  0  0  0  0  0  0  0  0  0  0
   59.0348   -2.4591    1.2321 H   0  0  0  0  0  0  0  0  0  0  0  0
   73.9648   -1.3546   -1.9114 Fe  0  0  0  0  0  0  0  0  0  0  0  0
   70.6285   -1.0220   -1.4960 C   0  0  0  0  0  0  0  0  0  0  0  0
   71.2950   -0.0908   -2.3114 C   0  0  0  0  0  0  0  0  0  0  0  0
   70.6403    0.9481   -3.0415 C   0  0  0  0  0  0  0  0  0  0  0  0
   71.5778    1.5077   -3.8494 C   0  0  0  0  0  0  0  0  0  0  0  0
   72.8117    0.8472   -3.5610 C   0  0  0  0  0  0  0  0  0  0  0  0
   72.6173   -0.1387   -2.6332 N   0  0  0  0  0  0  0  0  0  0  0  0
   74.0576    1.2618   -4.0414 C   0  0  0  0  0  0  0  0  0  0  0  0
   74.1014    2.2629   -5.0336 C   0  0  0  0  0  0  0  0  0  0  0  0
   74.1419    3.1036   -5.9081 C   0  0  0  0  0  0  0  0  0  0  0  0
   74.1877    4.0843   -6.9253 C   0  0  0  0  0  0  0  0  0  0  0  0
   75.4067    4.5299   -7.4493 C   0  0  0  0  0  0  0  0  0  0  0  0
   75.3959    5.4896   -8.4461 C   0  0  0  0  0  0  0  0  0  0  0  0
   74.2765    6.0162   -8.9358 N   0  0  0  0  0  0  0  0  0  0  0  0
   73.1137    5.5983   -8.4425 C   0  0  0  0  0  0  0  0  0  0  0  0
   73.0149    4.6433   -7.4462 C   0  0  0  0  0  0  0  0  0  0  0  0
   75.2632    0.8159   -3.4868 C   0  0  0  0  0  0  0  0  0  0  0  0
   76.5269    1.4460   -3.7035 C   0  0  0  0  0  0  0  0  0  0  0  0
   77.4058    0.8550   -2.8533 C   0  0  0  0  0  0  0  0  0  0  0  0
   75.3796   -0.1768   -2.5552 N   0  0  0  0  0  0  0  0  0  0  0  0
   76.6862   -0.1698   -2.1652 C   0  0  0  0  0  0  0  0  0  0  0  0
   77.2893   -1.1364   -1.3441 C   0  0  0  0  0  0  0  0  0  0  0  0
   76.6282   -2.3217   -0.9842 C   0  0  0  0  0  0  0  0  0  0  0  0
   77.2790   -3.4702   -0.4382 C   0  0  0  0  0  0  0  0  0  0  0  0
   76.3505   -4.4602   -0.3914 C   0  0  0  0  0  0  0  0  0  0  0  0
   75.1238   -3.8909   -0.8522 C   0  0  0  0  0  0  0  0  0  0  0  0
   75.3120   -2.5889   -1.2212 N   0  0  0  0  0  0  0  0  0  0  0  0
   73.8842   -4.5378   -0.7847 C   0  0  0  0  0  0  0  0  0  0  0  0
   73.8538   -5.9006   -0.4222 C   0  0  0  0  0  0  0  0  0  0  0  0
   73.8268   -7.0765   -0.1233 C   0  0  0  0  0  0  0  0  0  0  0  0
   73.7945   -8.4437    0.2351 C   0  0  0  0  0  0  0  0  0  0  0  0
   72.5809   -9.1173    0.4158 C   0  0  0  0  0  0  0  0  0  0  0  0
   72.6038  -10.4541    0.7719 C   0  0  0  0  0  0  0  0  0  0  0  0
   73.7301  -11.1388    0.9527 N   0  0  0  0  0  0  0  0  0  0  0  0
   74.8879  -10.5061    0.7816 C   0  0  0  0  0  0  0  0  0  0  0  0
   74.9747   -9.1716    0.4264 C   0  0  0  0  0  0  0  0  0  0  0  0
   72.6717   -3.8569   -0.9279 C   0  0  0  0  0  0  0  0  0  0  0  0
   71.4009   -4.3918   -0.5524 C   0  0  0  0  0  0  0  0  0  0  0  0
   70.5102   -3.3698   -0.6346 C   0  0  0  0  0  0  0  0  0  0  0  0
   71.2315   -2.2343   -1.1159 C   0  0  0  0  0  0  0  0  0  0  0  0
   72.5463   -2.5435   -1.2888 N   0  0  0  0  0  0  0  0  0  0  0  0
   69.5915    1.1854   -2.9676 H   0  0  0  0  0  0  0  0  0  0  0  0
   71.4618    2.3136   -4.5561 H   0  0  0  0  0  0  0  0  0  0  0  0
   76.3414    4.1268   -7.0790 H   0  0  0  0  0  0  0  0  0  0  0  0
   76.3263    5.8534   -8.8722 H   0  0  0  0  0  0  0  0  0  0  0  0
   72.2207    6.0494   -8.8653 H   0  0  0  0  0  0  0  0  0  0  0  0
   72.0473    4.3306   -7.0726 H   0  0  0  0  0  0  0  0  0  0  0  0
   76.7011    2.2535   -4.3963 H   0  0  0  0  0  0  0  0  0  0  0  0
   78.4554    1.0633   -2.7237 H   0  0  0  0  0  0  0  0  0  0  0  0
   78.3178   -3.5124   -0.1542 H   0  0  0  0  0  0  0  0  0  0  0  0
   76.4672   -5.4758   -0.0488 H   0  0  0  0  0  0  0  0  0  0  0  0
   71.6408   -8.5967    0.2790 H   0  0  0  0  0  0  0  0  0  0  0  0
   71.6777  -11.0019    0.9201 H   0  0  0  0  0  0  0  0  0  0  0  0
   75.7868  -11.0956    0.9371 H   0  0  0  0  0  0  0  0  0  0  0  0
   75.9386   -8.6943    0.2979 H   0  0  0  0  0  0  0  0  0  0  0  0
   71.2294   -5.4094   -0.2401 H   0  0  0  0  0  0  0  0  0  0  0  0
   69.4526   -3.3853   -0.4277 H   0  0  0  0  0  0  0  0  0  0  0  0
  2  3  4  0  0  0  0
  3  4  4  0  0  0  0
  4  5  2  0  0  0  0
  5  6  4  0  0  0  0
  1  7  1  0  0  0  0
  3  7  4  0  0  0  0
  6  7  4  0  0  0  0
  6  8  4  0  0  0  0
  8  9  1  0  0  0  0
  9 10  3  0  0  0  0
 10 11  1  0  0  0  0
 11 12  4  0  0  0  0
 12 13  4  0  0  0  0
 13 14  4  0  0  0  0
 14 15  4  0  0  0  0
 11 16  4  0  0  0  0
 15 16  4  0  0  0  0
  8 17  4  0  0  0  0
 17 18  4  0  0  0  0
 18 19  2  0  0  0  0
  1 20  1  0  0  0  0
 17 20  4  0  0  0  0
 19 21  4  0  0  0  0
 20 21  4  0  0  0  0
 21 22  4  0  0  0  0
 22 23  4  0  0  0  0
 23 24  4  0  0  0  0
 24 25  2  0  0  0  0
 25 26  4  0  0  0  0
  1 27  1  0  0  0  0
 23 27  4  0  0  0  0
 26 27  4  0  0  0  0
 26 28  4  0  0  0  0
 28 29  1  0  0  0  0
 29 30  3  0  0  0  0
 30 31  1  0  0  0  0
 31 32  4  0  0  0  0
 32 33  4  0  0  0  0
 33 34  4  0  0  0  0
 34 35  4  0  0  0  0
 31 36  4  0  0  0  0
 35 36  4  0  0  0  0
 28 37  4  0  0  0  0
 37 38  4  0  0  0  0
 38 39  2  0  0  0  0
  2 40  4  0  0  0  0
 39 40  4  0  0  0  0
  1 41  1  0  0  0  0
 37 41  4  0  0  0  0
 40 41  4  0  0  0  0
  2 42  1  0  0  0  0
  4 43  1  0  0  0  0
  5 44  1  0  0  0  0
 12 45  1  0  0  0  0
 13 46  1  0  0  0  0
 15 47  1  0  0  0  0
 16 48  1  0  0  0  0
 18 49  1  0  0  0  0
 19 50  1  0  0  0  0
 24 51  1  0  0  0  0
 25 52  1  0  0  0  0
 32 53  1  0  0  0  0
 33 54  1  0  0  0  0
 35 55  1  0  0  0  0
 36 56  1  0  0  0  0
 38 57  1  0  0  0  0
 39 58  1  0  0  0  0
 60 61  4  0  0  0  0
 61 62  4  0  0  0  0
 62 63  2  0  0  0  0
 63 64  4  0  0  0  0
 59 65  1  0  0  0  0
 61 65  4  0  0  0  0
 64 65  4  0  0  0  0
 64 66  4  0  0  0  0
 66 67  1  0  0  0  0
 67 68  3  0  0  0  0
 68 69  1  0  0  0  0
 69 70  4  0  0  0  0
 70 71  4  0  0  0  0
 71 72  4  0  0  0  0
 72 73  4  0  0  0  0
 69 74  4  0  0  0  0
 73 74  4  0  0  0  0
 66 75  4  0  0  0  0
 75 76  4  0  0  0  0
 76 77  2  0  0  0  0
 59 78  1  0  0  0  0
 75 78  4  0  0  0  0
 77 79  4  0  0  0  0
 78 79  4  0  0  0  0
 79 80  4  0  0  0  0
 80 81  4  0  0  0  0
 81 82  4  0  0  0  0
 82 83  2  0  0  0  0
 83 84  4  0  0  0  0
 59 85  1  0  0  0  0
 81 85  4  0  0  0  0
 84 85  4  0  0  0  0
 84 86  4  0  0  0  0
 86 87  1  0  0  0  0
 87 88  3  0  0  0  0
 88 89  1  0  0  0  0
 89 90  4  0  0  0  0
 90 91  4  0  0  0  0
 91 92  4  0  0  0  0
 92 93  4  0  0  0  0
 89 94  4  0  0  0  0
 93 94  4  0  0  0  0
 86 95  4  0  0  0  0
 95 96  4  0  0  0  0
 96 97  2  0  0  0  0
 60 98  4  0  0  0  0
 97 98  4  0  0  0  0
 59 99  1  0  0  0  0
 95 99  4  0  0  0  0
 98 99  4  0  0  0  0
 60100  1  0  0  0  0
 62101  1  0  0  0  0
 63102  1  0  0  0  0
 70103  1  0  0  0  0
 71104  1  0  0  0  0
 73105  1  0  0  0  0
 74106  1  0  0  0  0
 76107  1  0  0  0  0
 77108  1  0  0  0  0
 82109  1  0  0  0  0
 83110  1  0  0  0  0
 90111  1  0  0  0  0
 91112  1  0  0  0  0
 93113  1  0  0  0  0
 94114  1  0  0  0  0
 96115  1  0  0  0  0
 97116  1  0  0  0  0
 22117  1  0  0  0  0
117118  3  0  0  0  0
119120  3  0  0  0  0
 80122  4  0  0  0  0
121122  3  0  0  0  0
118124  1  0  0  0  0
124125  4  0  0  0  0
125126  4  0  0  0  0
126127  2  0  0  0  0
127128  4  0  0  0  0
123129  1  0  0  0  0
125129  4  0  0  0  0
128129  4  0  0  0  0
128130  4  0  0  0  0
130131  1  0  0  0  0
131132  3  0  0  0  0
132133  1  0  0  0  0
133134  4  0  0  0  0
134135  4  0  0  0  0
135136  4  0  0  0  0
136137  4  0  0  0  0
133138  4  0  0  0  0
137138  4  0  0  0  0
130139  4  0  0  0  0
139140  4  0  0  0  0
140141  2  0  0  0  0
123142  1  0  0  0  0
139142  4  0  0  0  0
141143  4  0  0  0  0
142143  4  0  0  0  0
119144  4  0  0  0  0
143144  4  0  0  0  0
144145  4  0  0  0  0
145146  4  0  0  0  0
146147  2  0  0  0  0
147148  4  0  0  0  0
123149  1  0  0  0  0
145149  4  0  0  0  0
148149  4  0  0  0  0
148150  4  0  0  0  0
150151  1  0  0  0  0
151152  3  0  0  0  0
152153  1  0  0  0  0
153154  4  0  0  0  0
154155  4  0  0  0  0
155156  4  0  0  0  0
156157  4  0  0  0  0
153158  4  0  0  0  0
157158  4  0  0  0  0
150159  4  0  0  0  0
159160  4  0  0  0  0
160161  2  0  0  0  0
124162  4  0  0  0  0
161162  4  0  0  0  0
123163  1  0  0  0  0
159163  4  0  0  0  0
162163  4  0  0  0  0
126164  1  0  0  0  0
127165  1  0  0  0  0
134166  1  0  0  0  0
135167  1  0  0  0  0
137168  1  0  0  0  0
138169  1  0  0  0  0
140170  1  0  0  0  0
141171  1  0  0  0  0
146172  1  0  0  0  0
147173  1  0  0  0  0
154174  1  0  0  0  0
155175  1  0  0  0  0
157176  1  0  0  0  0
158177  1  0  0  0  0
160178  1  0  0  0  0
161179  1  0  0  0  0
120181  4  0  0  0  0
181182  4  0  0  0  0
182183  4  0  0  0  0
183184  2  0  0  0  0
184185  4  0  0  0  0
180186  1  0  0  0  0
182186  4  0  0  0  0
185186  4  0  0  0  0
185187  4  0  0  0  0
187188  1  0  0  0  0
188189  3  0  0  0  0
189190  1  0  0  0  0
190191  4  0  0  0  0
191192  4  0  0  0  0
192193  4  0  0  0  0
193194  4  0  0  0  0
190195  4  0  0  0  0
194195  4  0  0  0  0
187196  4  0  0  0  0
196197  4  0  0  0  0
197198  2  0  0  0  0
180199  1  0  0  0  0
196199  4  0  0  0  0
198200  4  0  0  0  0
199200  4  0  0  0  0
121201  4  0  0  0  0
200201  4  0  0  0  0
201202  4  0  0  0  0
202203  4  0  0  0  0
203204  2  0  0  0  0
204205  4  0  0  0  0
180206  1  0  0  0  0
202206  4  0  0  0  0
205206  4  0  0  0  0
205207  4  0  0  0  0
207208  1  0  0  0  0
208209  3  0  0  0  0
209210  1  0  0  0  0
210211  4  0  0  0  0
211212  4  0  0  0  0
212213  4  0  0  0  0
213214  4  0  0  0  0
210215  4  0  0  0  0
214215  4  0  0  0  0
207216  4  0  0  0  0
216217  4  0  0  0  0
217218  2  0  0  0  0
181219  4  0  0  0  0
218219  4  0  0  0  0
180220  1  0  0  0  0
216220  4  0  0  0  0
219220  4  0  0  0  0
183221  1  0  0  0  0
184222  1  0  0  0  0
191223  1  0  0  0  0
192224  1  0  0  0  0
194225  1  0  0  0  0
195226  1  0  0  0  0
197227  1  0  0  0  0
198228  1  0  0  0  0
203229  1  0  0  0  0
204230  1  0  0  0  0
211231  1  0  0  0  0
212232  1  0  0  0  0
214233  1  0  0  0  0
215234  1  0  0  0  0
217235  1  0  0  0  0
218236  1  0  0  0  0
M  END
