 xtb: 6.5.1 (b24c23e)
          07292218243D

124143  0     0  0            999 V2000
   13.6104    0.0465    0.0036 Fe  0  0  0  0  0  0  0  0  0  0  0  0
   10.2095    0.1058    0.0009 C   0  0  0  0  0  0  0  0  0  0  0  0
   10.8651    0.8955    0.9224 C   0  0  0  0  0  0  0  0  0  0  0  0
   10.1945    1.7283    1.8749 C   0  0  0  0  0  0  0  0  0  0  0  0
   11.1597    2.3879    2.5592 C   0  0  0  0  0  0  0  0  0  0  0  0
   12.4134    1.9562    2.0189 C   0  0  0  0  0  0  0  0  0  0  0  0
   12.2258    1.0322    1.0342 N   0  0  0  0  0  0  0  0  0  0  0  0
   13.6465    2.4721    2.4264 C   0  0  0  0  0  0  0  0  0  0  0  0
   13.6637    3.4733    3.4212 C   0  0  0  0  0  0  0  0  0  0  0  0
   13.6865    4.3366    4.2738 C   0  0  0  0  0  0  0  0  0  0  0  0
   13.7235    5.3444    5.2645 C   0  0  0  0  0  0  0  0  0  0  0  0
   14.9334    5.9349    5.6487 C   0  0  0  0  0  0  0  0  0  0  0  0
   14.9197    6.9192    6.6207 C   0  0  0  0  0  0  0  0  0  0  0  0
   13.8057    7.3375    7.2162 N   0  0  0  0  0  0  0  0  0  0  0  0
   12.6518    6.7806    6.8572 C   0  0  0  0  0  0  0  0  0  0  0  0
   12.5565    5.7901    5.8958 C   0  0  0  0  0  0  0  0  0  0  0  0
   14.8625    2.0503    1.8889 C   0  0  0  0  0  0  0  0  0  0  0  0
   16.1264    2.5885    2.2852 C   0  0  0  0  0  0  0  0  0  0  0  0
   17.0724    1.9024    1.5983 C   0  0  0  0  0  0  0  0  0  0  0  0
   15.0286    1.0574    0.9604 N   0  0  0  0  0  0  0  0  0  0  0  0
   16.3787    0.9494    0.7897 C   0  0  0  0  0  0  0  0  0  0  0  0
   17.0324    0.0066   -0.0132 C   0  0  0  0  0  0  0  0  0  0  0  0
   16.3508   -0.9269   -0.8032 C   0  0  0  0  0  0  0  0  0  0  0  0
   17.0145   -1.8994   -1.6133 C   0  0  0  0  0  0  0  0  0  0  0  0
   16.0454   -2.5771   -2.2762 C   0  0  0  0  0  0  0  0  0  0  0  0
   14.7978   -2.0117   -1.8664 C   0  0  0  0  0  0  0  0  0  0  0  0
   14.9963   -1.0129   -0.9507 N   0  0  0  0  0  0  0  0  0  0  0  0
   13.5668   -2.4099   -2.3872 C   0  0  0  0  0  0  0  0  0  0  0  0
   13.5456   -3.4244   -3.3684 C   0  0  0  0  0  0  0  0  0  0  0  0
   13.5234   -4.2996   -4.2088 C   0  0  0  0  0  0  0  0  0  0  0  0
   13.4964   -5.3175   -5.1895 C   0  0  0  0  0  0  0  0  0  0  0  0
   14.6676   -5.9703   -5.5915 C   0  0  0  0  0  0  0  0  0  0  0  0
   14.5858   -6.9599   -6.5549 C   0  0  0  0  0  0  0  0  0  0  0  0
   13.4410   -7.3266   -7.1255 N   0  0  0  0  0  0  0  0  0  0  0  0
   12.3233   -6.7106   -6.7490 C   0  0  0  0  0  0  0  0  0  0  0  0
   12.2964   -5.7098   -5.7942 C   0  0  0  0  0  0  0  0  0  0  0  0
   12.3515   -1.8492   -1.9849 C   0  0  0  0  0  0  0  0  0  0  0  0
   11.0847   -2.2391   -2.5264 C   0  0  0  0  0  0  0  0  0  0  0  0
   10.1426   -1.5307   -1.8590 C   0  0  0  0  0  0  0  0  0  0  0  0
   10.8399   -0.7136   -0.9122 C   0  0  0  0  0  0  0  0  0  0  0  0
   12.1948   -0.9065   -1.0125 N   0  0  0  0  0  0  0  0  0  0  0  0
    9.1254    0.1275   -0.0033 H   0  0  0  0  0  0  0  0  0  0  0  0
    9.1237    1.7889    1.9872 H   0  0  0  0  0  0  0  0  0  0  0  0
   11.0515    3.1077    3.3547 H   0  0  0  0  0  0  0  0  0  0  0  0
   15.8636    5.6238    5.1889 H   0  0  0  0  0  0  0  0  0  0  0  0
   15.8435    7.3950    6.9372 H   0  0  0  0  0  0  0  0  0  0  0  0
   11.7627    7.1455    7.3633 H   0  0  0  0  0  0  0  0  0  0  0  0
   11.5956    5.3641    5.6337 H   0  0  0  0  0  0  0  0  0  0  0  0
   16.2573    3.3854    2.9994 H   0  0  0  0  0  0  0  0  0  0  0  0
   18.1440    2.0157    1.6295 H   0  0  0  0  0  0  0  0  0  0  0  0
   18.0834   -2.0309   -1.6615 H   0  0  0  0  0  0  0  0  0  0  0  0
   16.1502   -3.3831   -2.9844 H   0  0  0  0  0  0  0  0  0  0  0  0
   15.6211   -5.7026   -5.1524 H   0  0  0  0  0  0  0  0  0  0  0  0
   15.4782   -7.4834   -6.8855 H   0  0  0  0  0  0  0  0  0  0  0  0
   11.4075   -7.0344   -7.2350 H   0  0  0  0  0  0  0  0  0  0  0  0
   11.3635   -5.2341   -5.5169 H   0  0  0  0  0  0  0  0  0  0  0  0
   10.9529   -2.9651   -3.3127 H   0  0  0  0  0  0  0  0  0  0  0  0
    9.0710   -1.5493   -1.9784 H   0  0  0  0  0  0  0  0  0  0  0  0
   32.1876   -0.0304   -0.0391 Fe  0  0  0  0  0  0  0  0  0  0  0  0
   35.5884   -0.0566   -0.0924 C   0  0  0  0  0  0  0  0  0  0  0  0
   34.9336   -1.2537   -0.2945 C   0  0  0  0  0  0  0  0  0  0  0  0
   35.6048   -2.4988   -0.5177 C   0  0  0  0  0  0  0  0  0  0  0  0
   34.6401   -3.4255   -0.7310 C   0  0  0  0  0  0  0  0  0  0  0  0
   33.3861   -2.7406   -0.6398 C   0  0  0  0  0  0  0  0  0  0  0  0
   33.5730   -1.4206   -0.3546 N   0  0  0  0  0  0  0  0  0  0  0  0
   32.1532   -3.3554   -0.8740 C   0  0  0  0  0  0  0  0  0  0  0  0
   32.1358   -4.7230   -1.2225 C   0  0  0  0  0  0  0  0  0  0  0  0
   32.1147   -5.8982   -1.5248 C   0  0  0  0  0  0  0  0  0  0  0  0
   32.0783   -7.2649   -1.8843 C   0  0  0  0  0  0  0  0  0  0  0  0
   30.8690   -7.8981   -2.1952 C   0  0  0  0  0  0  0  0  0  0  0  0
   30.8838   -9.2370   -2.5431 C   0  0  0  0  0  0  0  0  0  0  0  0
   31.9984   -9.9619   -2.5973 N   0  0  0  0  0  0  0  0  0  0  0  0
   33.1517   -9.3676   -2.3022 C   0  0  0  0  0  0  0  0  0  0  0  0
   33.2458   -8.0346   -1.9435 C   0  0  0  0  0  0  0  0  0  0  0  0
   30.9372   -2.6774   -0.7897 C   0  0  0  0  0  0  0  0  0  0  0  0
   29.6736   -3.2945   -1.0484 C   0  0  0  0  0  0  0  0  0  0  0  0
   28.7273   -2.3528   -0.8138 C   0  0  0  0  0  0  0  0  0  0  0  0
   30.7705   -1.3706   -0.4156 N   0  0  0  0  0  0  0  0  0  0  0  0
   29.4203   -1.1691   -0.4117 C   0  0  0  0  0  0  0  0  0  0  0  0
   28.7656    0.0041   -0.0171 C   0  0  0  0  0  0  0  0  0  0  0  0
   29.4460    1.1619    0.3783 C   0  0  0  0  0  0  0  0  0  0  0  0
   28.7818    2.3566    0.7954 C   0  0  0  0  0  0  0  0  0  0  0  0
   29.7505    3.2738    1.0366 C   0  0  0  0  0  0  0  0  0  0  0  0
   30.9984    2.6320    0.7629 C   0  0  0  0  0  0  0  0  0  0  0  0
   30.8005    1.3332    0.3769 N   0  0  0  0  0  0  0  0  0  0  0  0
   32.2293    3.2836    0.8376 C   0  0  0  0  0  0  0  0  0  0  0  0
   32.2506    4.6463    1.2048 C   0  0  0  0  0  0  0  0  0  0  0  0
   32.2731    5.8165    1.5258 C   0  0  0  0  0  0  0  0  0  0  0  0
   32.3013    7.1800    1.8982 C   0  0  0  0  0  0  0  0  0  0  0  0
   31.1308    7.8606    2.2531 C   0  0  0  0  0  0  0  0  0  0  0  0
   31.2138    9.1947    2.6101 C   0  0  0  0  0  0  0  0  0  0  0  0
   32.3593    9.8715    2.6330 N   0  0  0  0  0  0  0  0  0  0  0  0
   33.4763    9.2317    2.2966 C   0  0  0  0  0  0  0  0  0  0  0  0
   33.5020    7.8992    1.9255 C   0  0  0  0  0  0  0  0  0  0  0  0
   33.4448    2.6507    0.5630 C   0  0  0  0  0  0  0  0  0  0  0  0
   34.7113    3.3164    0.6183 C   0  0  0  0  0  0  0  0  0  0  0  0
   35.6538    2.3803    0.3532 C   0  0  0  0  0  0  0  0  0  0  0  0
   34.9571    1.1476    0.1399 C   0  0  0  0  0  0  0  0  0  0  0  0
   33.6021    1.3320    0.2544 N   0  0  0  0  0  0  0  0  0  0  0  0
   36.6725   -0.0633   -0.1134 H   0  0  0  0  0  0  0  0  0  0  0  0
   36.6757   -2.6258   -0.5114 H   0  0  0  0  0  0  0  0  0  0  0  0
   34.7489   -4.4781   -0.9381 H   0  0  0  0  0  0  0  0  0  0  0  0
   29.9382   -7.3447   -2.1636 H   0  0  0  0  0  0  0  0  0  0  0  0
   29.9605   -9.7531   -2.7901 H   0  0  0  0  0  0  0  0  0  0  0  0
   34.0413   -9.9885   -2.3561 H   0  0  0  0  0  0  0  0  0  0  0  0
   34.2062   -7.5907   -1.7111 H   0  0  0  0  0  0  0  0  0  0  0  0
   29.5435   -4.3169   -1.3647 H   0  0  0  0  0  0  0  0  0  0  0  0
   27.6557   -2.4381   -0.8954 H   0  0  0  0  0  0  0  0  0  0  0  0
   27.7128    2.4655    0.8832 H   0  0  0  0  0  0  0  0  0  0  0  0
   29.6453    4.2958    1.3633 H   0  0  0  0  0  0  0  0  0  0  0  0
   30.1769    7.3472    2.2479 H   0  0  0  0  0  0  0  0  0  0  0  0
   30.3220    9.7475    2.8907 H   0  0  0  0  0  0  0  0  0  0  0  0
   34.3927    9.8141    2.3260 H   0  0  0  0  0  0  0  0  0  0  0  0
   34.4345    7.4166    1.6590 H   0  0  0  0  0  0  0  0  0  0  0  0
   34.8426    4.3642    0.8363 H   0  0  0  0  0  0  0  0  0  0  0  0
   36.7253    2.4929    0.3071 H   0  0  0  0  0  0  0  0  0  0  0  0
   18.4331   -0.0037   -0.0207 C   0  0  0  0  0  0  0  0  0  0  0  0
   19.6594   -0.0043   -0.0235 C   0  0  0  0  0  0  0  0  0  0  0  0
   20.9989   -0.0020   -0.0239 C   0  0  0  0  0  0  0  0  0  0  0  0
   22.2315    0.0035   -0.0212 C   0  0  0  0  0  0  0  0  0  0  0  0
   23.5662    0.0093   -0.0185 C   0  0  0  0  0  0  0  0  0  0  0  0
   24.7989    0.0165   -0.0161 C   0  0  0  0  0  0  0  0  0  0  0  0
   26.1385    0.0177   -0.0149 C   0  0  0  0  0  0  0  0  0  0  0  0
   27.3648    0.0148   -0.0142 C   0  0  0  0  0  0  0  0  0  0  0  0
  2  3  4  0  0  0  0
  3  4  4  0  0  0  0
  4  5  2  0  0  0  0
  5  6  4  0  0  0  0
  1  7  1  0  0  0  0
  3  7  4  0  0  0  0
  6  7  4  0  0  0  0
  6  8  4  0  0  0  0
  8  9  1  0  0  0  0
  9 10  3  0  0  0  0
 10 11  1  0  0  0  0
 11 12  4  0  0  0  0
 12 13  4  0  0  0  0
 13 14  4  0  0  0  0
 14 15  4  0  0  0  0
 11 16  4  0  0  0  0
 15 16  4  0  0  0  0
  8 17  4  0  0  0  0
 17 18  4  0  0  0  0
 18 19  2  0  0  0  0
  1 20  1  0  0  0  0
 17 20  4  0  0  0  0
 19 21  4  0  0  0  0
 20 21  4  0  0  0  0
 21 22  4  0  0  0  0
 22 23  4  0  0  0  0
 23 24  4  0  0  0  0
 24 25  2  0  0  0  0
 25 26  4  0  0  0  0
  1 27  1  0  0  0  0
 23 27  4  0  0  0  0
 26 27  4  0  0  0  0
 26 28  4  0  0  0  0
 28 29  1  0  0  0  0
 29 30  3  0  0  0  0
 30 31  1  0  0  0  0
 31 32  4  0  0  0  0
 32 33  4  0  0  0  0
 33 34  4  0  0  0  0
 34 35  4  0  0  0  0
 31 36  4  0  0  0  0
 35 36  4  0  0  0  0
 28 37  4  0  0  0  0
 37 38  4  0  0  0  0
 38 39  2  0  0  0  0
  2 40  4  0  0  0  0
 39 40  4  0  0  0  0
  1 41  1  0  0  0  0
 37 41  4  0  0  0  0
 40 41  4  0  0  0  0
  2 42  1  0  0  0  0
  4 43  1  0  0  0  0
  5 44  1  0  0  0  0
 12 45  1  0  0  0  0
 13 46  1  0  0  0  0
 15 47  1  0  0  0  0
 16 48  1  0  0  0  0
 18 49  1  0  0  0  0
 19 50  1  0  0  0  0
 24 51  1  0  0  0  0
 25 52  1  0  0  0  0
 32 53  1  0  0  0  0
 33 54  1  0  0  0  0
 35 55  1  0  0  0  0
 36 56  1  0  0  0  0
 38 57  1  0  0  0  0
 39 58  1  0  0  0  0
 60 61  4  0  0  0  0
 61 62  4  0  0  0  0
 62 63  2  0  0  0  0
 63 64  4  0  0  0  0
 59 65  1  0  0  0  0
 61 65  4  0  0  0  0
 64 65  4  0  0  0  0
 64 66  4  0  0  0  0
 66 67  1  0  0  0  0
 67 68  3  0  0  0  0
 68 69  1  0  0  0  0
 69 70  4  0  0  0  0
 70 71  4  0  0  0  0
 71 72  4  0  0  0  0
 72 73  4  0  0  0  0
 69 74  4  0  0  0  0
 73 74  4  0  0  0  0
 66 75  4  0  0  0  0
 75 76  4  0  0  0  0
 76 77  2  0  0  0  0
 59 78  1  0  0  0  0
 75 78  4  0  0  0  0
 77 79  4  0  0  0  0
 78 79  4  0  0  0  0
 79 80  4  0  0  0  0
 80 81  4  0  0  0  0
 81 82  4  0  0  0  0
 82 83  2  0  0  0  0
 83 84  4  0  0  0  0
 59 85  1  0  0  0  0
 81 85  4  0  0  0  0
 84 85  4  0  0  0  0
 84 86  4  0  0  0  0
 86 87  1  0  0  0  0
 87 88  3  0  0  0  0
 88 89  1  0  0  0  0
 89 90  4  0  0  0  0
 90 91  4  0  0  0  0
 91 92  4  0  0  0  0
 92 93  4  0  0  0  0
 89 94  4  0  0  0  0
 93 94  4  0  0  0  0
 86 95  4  0  0  0  0
 95 96  4  0  0  0  0
 96 97  2  0  0  0  0
 60 98  4  0  0  0  0
 97 98  4  0  0  0  0
 59 99  1  0  0  0  0
 95 99  4  0  0  0  0
 98 99  4  0  0  0  0
 60100  1  0  0  0  0
 62101  1  0  0  0  0
 63102  1  0  0  0  0
 70103  1  0  0  0  0
 71104  1  0  0  0  0
 73105  1  0  0  0  0
 74106  1  0  0  0  0
 76107  1  0  0  0  0
 77108  1  0  0  0  0
 82109  1  0  0  0  0
 83110  1  0  0  0  0
 90111  1  0  0  0  0
 91112  1  0  0  0  0
 93113  1  0  0  0  0
 94114  1  0  0  0  0
 96115  1  0  0  0  0
 97116  1  0  0  0  0
 22117  4  0  0  0  0
117118  3  0  0  0  0
118119  4  0  0  0  0
119120  3  0  0  0  0
120121  4  0  0  0  0
121122  3  0  0  0  0
122123  4  0  0  0  0
 80124  4  0  0  0  0
123124  3  0  0  0  0
M  END
