 xtb: 6.5.1 (b24c23e)
          07302209123D

124143  0     0  0            999 V2000
   12.9990   -0.0279   -0.0123 Cu  0  0  0  0  0  0  0  0  0  0  0  0
    9.5940   -0.0748   -0.0948 C   0  0  0  0  0  0  0  0  0  0  0  0
   10.2330   -1.3036   -0.0240 C   0  0  0  0  0  0  0  0  0  0  0  0
    9.5616   -2.5690    0.0566 C   0  0  0  0  0  0  0  0  0  0  0  0
   10.5232   -3.5216    0.1411 C   0  0  0  0  0  0  0  0  0  0  0  0
   11.7921   -2.8468    0.1016 C   0  0  0  0  0  0  0  0  0  0  0  0
   11.5842   -1.5009    0.0070 N   0  0  0  0  0  0  0  0  0  0  0  0
   13.0383   -3.4738    0.1788 C   0  0  0  0  0  0  0  0  0  0  0  0
   13.0562   -4.9555    0.2739 C   0  0  0  0  0  0  0  0  0  0  0  0
   12.5499   -5.7401   -0.7623 C   0  0  0  0  0  0  0  0  0  0  0  0
   12.5680   -7.1238   -0.6770 C   0  0  0  0  0  0  0  0  0  0  0  0
   13.0899   -7.7394    0.4583 C   0  0  0  0  0  0  0  0  0  0  0  0
   13.1234   -9.0914    0.5849 O   0  0  0  0  0  0  0  0  0  0  0  0
   13.5954   -6.9671    1.5023 C   0  0  0  0  0  0  0  0  0  0  0  0
   13.5801   -5.5870    1.4044 C   0  0  0  0  0  0  0  0  0  0  0  0
   14.2683   -2.8137    0.1742 C   0  0  0  0  0  0  0  0  0  0  0  0
   15.5482   -3.4634    0.1975 C   0  0  0  0  0  0  0  0  0  0  0  0
   16.4911   -2.4881    0.1583 C   0  0  0  0  0  0  0  0  0  0  0  0
   14.4529   -1.4574    0.1114 N   0  0  0  0  0  0  0  0  0  0  0  0
   15.7955   -1.2374    0.1049 C   0  0  0  0  0  0  0  0  0  0  0  0
   16.4279    0.0173    0.0409 C   0  0  0  0  0  0  0  0  0  0  0  0
   15.7653    1.2557   -0.0306 C   0  0  0  0  0  0  0  0  0  0  0  0
   16.4295    2.5212   -0.1189 C   0  0  0  0  0  0  0  0  0  0  0  0
   15.4625    3.4720   -0.1744 C   0  0  0  0  0  0  0  0  0  0  0  0
   14.1991    2.7930   -0.1137 C   0  0  0  0  0  0  0  0  0  0  0  0
   14.4174    1.4425   -0.0355 N   0  0  0  0  0  0  0  0  0  0  0  0
   12.9524    3.4204   -0.1578 C   0  0  0  0  0  0  0  0  0  0  0  0
   12.9320    4.9040   -0.2046 C   0  0  0  0  0  0  0  0  0  0  0  0
   13.4692    5.6538    0.8446 C   0  0  0  0  0  0  0  0  0  0  0  0
   13.4452    7.0368    0.8129 C   0  0  0  0  0  0  0  0  0  0  0  0
   12.8851    7.6933   -0.2814 C   0  0  0  0  0  0  0  0  0  0  0  0
   12.8793    9.0516   -0.2816 O   0  0  0  0  0  0  0  0  0  0  0  0
   12.3501    6.9593   -1.3374 C   0  0  0  0  0  0  0  0  0  0  0  0
   12.3726    5.5737   -1.2931 C   0  0  0  0  0  0  0  0  0  0  0  0
   11.7218    2.7582   -0.1584 C   0  0  0  0  0  0  0  0  0  0  0  0
   10.4361    3.4016   -0.1640 C   0  0  0  0  0  0  0  0  0  0  0  0
    9.4988    2.4214   -0.1557 C   0  0  0  0  0  0  0  0  0  0  0  0
   10.2021    1.1711   -0.1321 C   0  0  0  0  0  0  0  0  0  0  0  0
   11.5479    1.4043   -0.1304 N   0  0  0  0  0  0  0  0  0  0  0  0
    8.5090   -0.0889   -0.1058 H   0  0  0  0  0  0  0  0  0  0  0  0
    8.4905   -2.6971    0.0567 H   0  0  0  0  0  0  0  0  0  0  0  0
   10.3917   -4.5876    0.2349 H   0  0  0  0  0  0  0  0  0  0  0  0
   12.1539   -5.2622   -1.6516 H   0  0  0  0  0  0  0  0  0  0  0  0
   12.1797   -7.7292   -1.4891 H   0  0  0  0  0  0  0  0  0  0  0  0
   12.7496   -9.5269   -0.1929 H   0  0  0  0  0  0  0  0  0  0  0  0
   13.9945   -7.4591    2.3807 H   0  0  0  0  0  0  0  0  0  0  0  0
   13.9638   -4.9858    2.2211 H   0  0  0  0  0  0  0  0  0  0  0  0
   15.7017   -4.5301    0.2253 H   0  0  0  0  0  0  0  0  0  0  0  0
   17.5639   -2.5965    0.1589 H   0  0  0  0  0  0  0  0  0  0  0  0
   17.4993    2.6547   -0.1413 H   0  0  0  0  0  0  0  0  0  0  0  0
   15.5898    4.5387   -0.2639 H   0  0  0  0  0  0  0  0  0  0  0  0
   13.8936    5.1433    1.7019 H   0  0  0  0  0  0  0  0  0  0  0  0
   13.8545    7.6201    1.6285 H   0  0  0  0  0  0  0  0  0  0  0  0
   12.4665    9.4016   -1.0824 H   0  0  0  0  0  0  0  0  0  0  0  0
   11.9195    7.4746   -2.1893 H   0  0  0  0  0  0  0  0  0  0  0  0
   11.9668    5.0039   -2.1216 H   0  0  0  0  0  0  0  0  0  0  0  0
   10.2768    4.4679   -0.1609 H   0  0  0  0  0  0  0  0  0  0  0  0
    8.4248    2.5221   -0.1555 H   0  0  0  0  0  0  0  0  0  0  0  0
   31.6020    0.0231   -0.0162 Cu  0  0  0  0  0  0  0  0  0  0  0  0
   35.0069    0.0597   -0.1042 C   0  0  0  0  0  0  0  0  0  0  0  0
   34.3671    1.2856   -0.2096 C   0  0  0  0  0  0  0  0  0  0  0  0
   35.0378    2.5500   -0.3099 C   0  0  0  0  0  0  0  0  0  0  0  0
   34.0755    3.5043   -0.3630 C   0  0  0  0  0  0  0  0  0  0  0  0
   32.8071    2.8300   -0.3068 C   0  0  0  0  0  0  0  0  0  0  0  0
   33.0157    1.4844   -0.2079 N   0  0  0  0  0  0  0  0  0  0  0  0
   31.5605    3.4607   -0.3215 C   0  0  0  0  0  0  0  0  0  0  0  0
   31.5415    4.9407   -0.4398 C   0  0  0  0  0  0  0  0  0  0  0  0
   32.0496    5.5692   -1.5767 C   0  0  0  0  0  0  0  0  0  0  0  0
   32.0299    6.9509   -1.6908 C   0  0  0  0  0  0  0  0  0  0  0  0
   31.5049    7.7223   -0.6568 C   0  0  0  0  0  0  0  0  0  0  0  0
   31.4697    9.0784   -0.7255 O   0  0  0  0  0  0  0  0  0  0  0  0
   30.9979    7.1071    0.4863 C   0  0  0  0  0  0  0  0  0  0  0  0
   31.0146    5.7272    0.5873 C   0  0  0  0  0  0  0  0  0  0  0  0
   30.3308    2.8059   -0.2325 C   0  0  0  0  0  0  0  0  0  0  0  0
   29.0505    3.4513   -0.3039 C   0  0  0  0  0  0  0  0  0  0  0  0
   28.1081    2.4800   -0.2027 C   0  0  0  0  0  0  0  0  0  0  0  0
   30.1470    1.4545   -0.0994 N   0  0  0  0  0  0  0  0  0  0  0  0
   28.8044    1.2351   -0.0748 C   0  0  0  0  0  0  0  0  0  0  0  0
   28.1730   -0.0163    0.0426 C   0  0  0  0  0  0  0  0  0  0  0  0
   28.8366   -1.2515    0.1504 C   0  0  0  0  0  0  0  0  0  0  0  0
   28.1731   -2.5168    0.2454 C   0  0  0  0  0  0  0  0  0  0  0  0
   29.1406   -3.4653    0.3268 C   0  0  0  0  0  0  0  0  0  0  0  0
   30.4036   -2.7840    0.2887 C   0  0  0  0  0  0  0  0  0  0  0  0
   30.1845   -1.4364    0.1721 N   0  0  0  0  0  0  0  0  0  0  0  0
   31.6506   -3.4105    0.3343 C   0  0  0  0  0  0  0  0  0  0  0  0
   31.6720   -4.8855    0.5010 C   0  0  0  0  0  0  0  0  0  0  0  0
   31.1368   -5.4769    1.6479 C   0  0  0  0  0  0  0  0  0  0  0  0
   31.1621   -6.8502    1.8153 C   0  0  0  0  0  0  0  0  0  0  0  0
   31.7213   -7.6567    0.8260 C   0  0  0  0  0  0  0  0  0  0  0  0
   31.7285   -9.0009    1.0211 O   0  0  0  0  0  0  0  0  0  0  0  0
   32.2540   -7.0818   -0.3255 C   0  0  0  0  0  0  0  0  0  0  0  0
   32.2304   -5.7043   -0.4808 C   0  0  0  0  0  0  0  0  0  0  0  0
   32.8808   -2.7545    0.2381 C   0  0  0  0  0  0  0  0  0  0  0  0
   34.1669   -3.3914    0.3242 C   0  0  0  0  0  0  0  0  0  0  0  0
   35.1036   -2.4195    0.1920 C   0  0  0  0  0  0  0  0  0  0  0  0
   34.3996   -1.1792    0.0367 C   0  0  0  0  0  0  0  0  0  0  0  0
   33.0539   -1.4105    0.0720 N   0  0  0  0  0  0  0  0  0  0  0  0
   36.0919    0.0727   -0.1170 H   0  0  0  0  0  0  0  0  0  0  0  0
   36.1088    2.6775   -0.3271 H   0  0  0  0  0  0  0  0  0  0  0  0
   34.2065    4.5729   -0.4221 H   0  0  0  0  0  0  0  0  0  0  0  0
   32.4477    4.9693   -2.3876 H   0  0  0  0  0  0  0  0  0  0  0  0
   32.4194    7.4340   -2.5805 H   0  0  0  0  0  0  0  0  0  0  0  0
   31.8436    9.3983   -1.5573 H   0  0  0  0  0  0  0  0  0  0  0  0
   30.5965    7.7194    1.2843 H   0  0  0  0  0  0  0  0  0  0  0  0
   30.6297    5.2489    1.4811 H   0  0  0  0  0  0  0  0  0  0  0  0
   28.8964    4.5107   -0.4304 H   0  0  0  0  0  0  0  0  0  0  0  0
   27.0353    2.5866   -0.2183 H   0  0  0  0  0  0  0  0  0  0  0  0
   27.1034   -2.6527    0.2428 H   0  0  0  0  0  0  0  0  0  0  0  0
   29.0140   -4.5339    0.3918 H   0  0  0  0  0  0  0  0  0  0  0  0
   30.7131   -4.8487    2.4235 H   0  0  0  0  0  0  0  0  0  0  0  0
   30.7545   -7.3104    2.7069 H   0  0  0  0  0  0  0  0  0  0  0  0
   32.1405   -9.4621    0.2783 H   0  0  0  0  0  0  0  0  0  0  0  0
   32.6838   -7.7139   -1.0952 H   0  0  0  0  0  0  0  0  0  0  0  0
   32.6345   -5.2592   -1.3832 H   0  0  0  0  0  0  0  0  0  0  0  0
   34.3267   -4.4462    0.4798 H   0  0  0  0  0  0  0  0  0  0  0  0
   36.1777   -2.5187    0.2064 H   0  0  0  0  0  0  0  0  0  0  0  0
   17.8334    0.0304    0.0428 C   0  0  0  0  0  0  0  0  0  0  0  0
   19.0580    0.0291    0.0445 C   0  0  0  0  0  0  0  0  0  0  0  0
   20.4009    0.0223    0.0441 C   0  0  0  0  0  0  0  0  0  0  0  0
   21.6315    0.0079    0.0447 C   0  0  0  0  0  0  0  0  0  0  0  0
   22.9695   -0.0069    0.0455 C   0  0  0  0  0  0  0  0  0  0  0  0
   24.2001   -0.0214    0.0472 C   0  0  0  0  0  0  0  0  0  0  0  0
   25.5430   -0.0275    0.0471 C   0  0  0  0  0  0  0  0  0  0  0  0
   26.7676   -0.0304    0.0464 C   0  0  0  0  0  0  0  0  0  0  0  0
  2  3  4  0  0  0  0
  3  4  1  0  0  0  0
  4  5  2  0  0  0  0
  5  6  4  0  0  0  0
  1  7  1  0  0  0  0
  3  7  4  0  0  0  0
  6  7  4  0  0  0  0
  6  8  4  0  0  0  0
  8  9  1  0  0  0  0
  9 10  4  0  0  0  0
 10 11  4  0  0  0  0
 11 12  4  0  0  0  0
 12 13  1  0  0  0  0
 12 14  4  0  0  0  0
  9 15  4  0  0  0  0
 14 15  4  0  0  0  0
  8 16  4  0  0  0  0
 16 17  4  0  0  0  0
 17 18  2  0  0  0  0
  1 19  1  0  0  0  0
 16 19  4  0  0  0  0
 18 20  4  0  0  0  0
 19 20  4  0  0  0  0
 20 21  4  0  0  0  0
 21 22  4  0  0  0  0
 22 23  4  0  0  0  0
 23 24  2  0  0  0  0
 24 25  4  0  0  0  0
  1 26  1  0  0  0  0
 22 26  4  0  0  0  0
 25 26  4  0  0  0  0
 25 27  4  0  0  0  0
 27 28  1  0  0  0  0
 28 29  4  0  0  0  0
 29 30  4  0  0  0  0
 30 31  4  0  0  0  0
 31 32  1  0  0  0  0
 31 33  4  0  0  0  0
 28 34  4  0  0  0  0
 33 34  4  0  0  0  0
 27 35  4  0  0  0  0
 35 36  4  0  0  0  0
 36 37  2  0  0  0  0
  2 38  4  0  0  0  0
 37 38  1  0  0  0  0
  1 39  1  0  0  0  0
 35 39  4  0  0  0  0
 38 39  4  0  0  0  0
  2 40  1  0  0  0  0
  4 41  1  0  0  0  0
  5 42  1  0  0  0  0
 10 43  1  0  0  0  0
 11 44  1  0  0  0  0
 13 45  1  0  0  0  0
 14 46  1  0  0  0  0
 15 47  1  0  0  0  0
 17 48  1  0  0  0  0
 18 49  1  0  0  0  0
 23 50  1  0  0  0  0
 24 51  1  0  0  0  0
 29 52  1  0  0  0  0
 30 53  1  0  0  0  0
 32 54  1  0  0  0  0
 33 55  1  0  0  0  0
 34 56  1  0  0  0  0
 36 57  1  0  0  0  0
 37 58  1  0  0  0  0
 60 61  4  0  0  0  0
 61 62  1  0  0  0  0
 62 63  2  0  0  0  0
 63 64  4  0  0  0  0
 59 65  1  0  0  0  0
 61 65  4  0  0  0  0
 64 65  4  0  0  0  0
 64 66  4  0  0  0  0
 66 67  1  0  0  0  0
 67 68  4  0  0  0  0
 68 69  4  0  0  0  0
 69 70  4  0  0  0  0
 70 71  1  0  0  0  0
 70 72  4  0  0  0  0
 67 73  4  0  0  0  0
 72 73  4  0  0  0  0
 66 74  4  0  0  0  0
 74 75  4  0  0  0  0
 75 76  2  0  0  0  0
 59 77  1  0  0  0  0
 74 77  4  0  0  0  0
 76 78  4  0  0  0  0
 77 78  4  0  0  0  0
 78 79  4  0  0  0  0
 79 80  4  0  0  0  0
 80 81  4  0  0  0  0
 81 82  2  0  0  0  0
 82 83  4  0  0  0  0
 59 84  1  0  0  0  0
 80 84  4  0  0  0  0
 83 84  4  0  0  0  0
 83 85  4  0  0  0  0
 85 86  1  0  0  0  0
 86 87  4  0  0  0  0
 87 88  4  0  0  0  0
 88 89  4  0  0  0  0
 89 90  1  0  0  0  0
 89 91  4  0  0  0  0
 86 92  4  0  0  0  0
 91 92  4  0  0  0  0
 85 93  4  0  0  0  0
 93 94  4  0  0  0  0
 94 95  2  0  0  0  0
 60 96  4  0  0  0  0
 95 96  1  0  0  0  0
 59 97  1  0  0  0  0
 93 97  4  0  0  0  0
 96 97  4  0  0  0  0
 60 98  1  0  0  0  0
 62 99  1  0  0  0  0
 63100  1  0  0  0  0
 68101  1  0  0  0  0
 69102  1  0  0  0  0
 71103  1  0  0  0  0
 72104  1  0  0  0  0
 73105  1  0  0  0  0
 75106  1  0  0  0  0
 76107  1  0  0  0  0
 81108  1  0  0  0  0
 82109  1  0  0  0  0
 87110  1  0  0  0  0
 88111  1  0  0  0  0
 90112  1  0  0  0  0
 91113  1  0  0  0  0
 92114  1  0  0  0  0
 94115  1  0  0  0  0
 95116  1  0  0  0  0
 21117  4  0  0  0  0
117118  3  0  0  0  0
118119  4  0  0  0  0
119120  3  0  0  0  0
120121  4  0  0  0  0
121122  3  0  0  0  0
122123  4  0  0  0  0
 79124  4  0  0  0  0
123124  3  0  0  0  0
M  END
