183

Fe 34.303399 -0.022671 0.002706
C 30.941646 0.112436 -0.116317
C 31.607705 1.266129 -0.015885
C 30.957880 2.567727 0.078046
C 31.897984 3.481947 0.223270
C 33.203319 2.806880 0.224230
N 33.025948 1.398314 0.069397
C 34.392733 3.419217 0.397283
C 34.429065 4.886159 0.589821
C 34.683927 5.423874 1.859470
C 34.722670 6.809067 2.042616
C 34.502326 7.674556 0.956972
C 34.535651 9.138081 1.130833
O 34.770000 9.654382 2.256084
C 34.246240 7.132650 -0.312228
C 34.212224 5.747410 -0.495761
C 35.688476 2.688300 0.413970
C 36.983259 3.330139 0.672672
C 37.917413 2.406838 0.579836
N 35.827172 1.421891 0.162821
C 37.229109 1.164781 0.251112
C 37.825221 -0.013914 0.003788
C 37.070334 -1.237368 -0.354656
C 37.623955 -2.325811 -0.874652
C 36.579989 -3.320760 -1.008373
C 35.455284 -2.777090 -0.559396
N 35.673804 -1.432638 -0.125232
C 34.158583 -3.497275 -0.473121
C 34.168072 -4.977302 -0.548621
C 33.605740 -5.636502 -1.653087
C 33.635238 -7.031766 -1.730183
C 34.232105 -7.786365 -0.707875
C 34.259830 -9.256947 -0.809236
O 34.835874 -9.958310 0.063302
C 34.799805 -7.123844 0.395093
C 34.770422 -5.728473 0.471144
C 32.990341 -2.843923 -0.329443
C 31.668639 -3.457580 -0.212275
C 30.808193 -2.461986 -0.126816
C 31.571109 -1.215984 -0.176766
N 32.844571 -1.425753 -0.294922
H 29.858375 0.145251 -0.133156
H 29.894041 2.765494 0.050773
H 31.709468 4.541889 0.333550
H 34.853365 4.769201 2.705709
H 34.923287 7.201657 3.031592
H 34.358161 9.787973 0.283581
H 34.073317 7.781987 -1.161868
H 34.015200 5.344575 -1.481968
H 37.165810 4.373504 0.891689
H 38.978375 2.574233 0.709823
H 38.664069 -2.462712 -1.137839
H 36.703949 -4.325856 -1.389594
H 33.149367 -5.068606 -2.455431
H 33.197369 -7.522357 -2.591765
H 33.788289 -9.749815 -1.649452
H 35.266051 -7.682919 1.197435
H 35.213570 -5.232706 1.326560
H 31.417529 -4.510108 -0.193270
H 29.735185 -2.564058 -0.028681
Fe 56.657186 -0.005093 0.003964
C 60.018938 -0.121873 -0.133086
C 59.352879 -1.278110 -0.197972
C 60.002705 -2.579819 -0.290355
C 59.062600 -3.505402 -0.276802
C 57.757265 -2.837352 -0.179717
N 57.934636 -1.421092 -0.132383
C 56.567851 -3.468092 -0.095629
C 56.531519 -4.947502 -0.113956
C 56.276657 -5.660544 1.066178
C 56.237914 -7.057700 1.050196
C 56.458258 -7.759765 -0.147634
C 56.424933 -9.233133 -0.183961
O 56.190584 -9.904416 0.856296
C 56.714345 -7.042639 -1.326728
C 56.748361 -5.645381 -1.311122
C 55.272109 -2.747001 0.024975
C 53.977326 -3.419140 0.189638
C 53.043171 -2.492028 0.229232
N 55.133412 -1.457733 -0.043269
C 53.731475 -1.215817 0.080736
C 53.135363 -0.013914 0.003788
C 53.890250 1.248115 -0.176774
C 53.336629 2.399516 -0.536469
C 54.380595 3.403367 -0.527139
C 55.505300 2.801301 -0.160160
N 55.286780 1.408724 0.078119
C 56.802001 3.501860 0.027794
C 56.792512 4.977555 0.163830
C 57.354844 5.787320 -0.835505
C 57.325346 7.179343 -0.713120
C 56.728479 7.780667 0.406229
C 56.700754 9.250695 0.515323
O 56.124710 9.820654 1.478847
C 56.160779 6.967828 1.403609
C 56.190162 5.575848 1.280174
C 57.970243 2.834706 0.076966
C 59.291945 3.425423 0.280329
C 60.152391 2.427806 0.223137
C 59.389476 1.201616 -0.003743
N 58.116013 1.426074 -0.090822
H 61.102209 -0.151955 -0.154427
H 61.066543 -2.771686 -0.345513
H 59.251116 -4.570246 -0.318589
H 56.107219 -5.133053 1.997022
H 56.037297 -7.587126 1.973186
H 56.602423 -9.755747 -1.115128
H 56.887267 -7.564363 -2.260179
H 56.945384 -5.106209 -2.229912
H 53.794774 -4.483061 0.257841
H 51.982209 -2.676228 0.334057
H 52.296515 2.572501 -0.777478
H 54.256635 4.452508 -0.761342
H 57.811217 5.339472 -1.710543
H 57.763215 7.787629 -1.496057
H 57.172295 9.858193 -0.246142
H 55.694533 7.406946 2.277390
H 55.747014 4.963317 2.056271
H 59.543055 4.464518 0.449028
H 61.225399 2.514863 0.334809
C 39.667120 -0.013914 0.003788
C 40.889038 -0.013914 0.003788
C 50.071546 -0.013914 0.003788
C 51.293464 -0.013914 0.003788
Fe 45.464487 -0.014458 0.013546
C 42.022253 0.029244 -0.007962
C 42.678505 1.164272 0.301453
C 42.037555 2.455214 0.564040
C 42.977760 3.330380 0.866414
C 44.275735 2.650825 0.820990
N 44.095860 1.279439 0.455994
C 45.460755 3.232069 1.102885
C 45.495334 4.649615 1.525693
C 45.996647 5.629919 0.656625
C 46.040892 6.968071 1.056017
C 45.585777 7.342326 2.332705
C 45.609925 8.747762 2.774180
O 46.074995 9.649072 2.030513
C 45.093580 6.358384 3.200699
C 45.049969 5.020240 2.799956
C 46.756913 2.516572 1.012462
C 48.024949 3.059330 1.514823
C 48.976869 2.197918 1.219880
N 46.924543 1.367174 0.435407
C 48.322526 1.095184 0.527564
C 48.938175 0.029244 -0.007962
C 48.189582 -1.054652 -0.676664
C 48.722631 -1.926332 -1.522300
C 47.690959 -2.891528 -1.851397
C 46.598924 -2.542020 -1.183785
N 46.824017 -1.364553 -0.410855
C 45.343771 -3.328902 -1.158505
C 45.405367 -4.765978 -1.514027
C 46.172474 -5.646948 -0.737381
C 46.244768 -7.001880 -1.072428
C 45.556255 -7.493347 -2.192766
C 45.640313 -8.926484 -2.523587
O 45.020305 -9.404536 -3.512403
C 44.797467 -6.607883 -2.978728
C 44.725395 -5.252351 -2.642714
C 44.170581 -2.772648 -0.799408
C 42.893657 -3.468462 -0.676856
C 42.002637 -2.548777 -0.362861
C 42.700129 -1.260502 -0.276613
N 43.967654 -1.385619 -0.527548
H 40.980804 2.686693 0.521128
H 42.793550 4.371026 1.100820
H 46.350276 5.356275 -0.329969
H 46.428417 7.708824 0.367417
H 45.216563 9.020196 3.753613
H 44.742501 6.625159 4.188487
H 44.670296 4.272437 3.481602
H 48.174523 3.996790 2.034181
H 50.026718 2.315456 1.455983
H 49.743033 -1.940595 -1.879064
H 47.805278 -3.756968 -2.490270
H 46.709009 -5.284564 0.131458
H 46.837603 -7.667740 -0.455817
H 46.240158 -9.588699 -1.910548
H 44.264578 -6.961459 -3.852998
H 44.142713 -4.580708 -3.262527
H 42.691507 -4.524396 -0.803820
H 40.950175 -2.738360 -0.195603
