 xtb: 6.5.1 (b24c23e)
          07292216043D

183212  0     0  0            999 V2000
   34.6463    0.0175   -0.0847 Fe  0  0  0  0  0  0  0  0  0  0  0  0
   31.2685    0.0668   -0.3081 C   0  0  0  0  0  0  0  0  0  0  0  0
   31.9299    1.2769   -0.2639 C   0  0  0  0  0  0  0  0  0  0  0  0
   31.2664    2.5458   -0.2909 C   0  0  0  0  0  0  0  0  0  0  0  0
   32.2142    3.4840   -0.0581 C   0  0  0  0  0  0  0  0  0  0  0  0
   33.4592    2.7873    0.0931 C   0  0  0  0  0  0  0  0  0  0  0  0
   33.2749    1.4405   -0.0586 N   0  0  0  0  0  0  0  0  0  0  0  0
   34.6565    3.3967    0.4552 C   0  0  0  0  0  0  0  0  0  0  0  0
   34.6584    4.8566    0.7114 C   0  0  0  0  0  0  0  0  0  0  0  0
   34.9036    5.3453    1.9975 C   0  0  0  0  0  0  0  0  0  0  0  0
   34.9005    6.7061    2.2372 C   0  0  0  0  0  0  0  0  0  0  0  0
   34.6589    7.6074    1.1952 C   0  0  0  0  0  0  0  0  0  0  0  0
   34.6638    9.0551    1.4768 C   0  0  0  0  0  0  0  0  0  0  0  0
   34.8696    9.5232    2.5670 O   0  0  0  0  0  0  0  0  0  0  0  0
   34.4185    7.1190   -0.0911 C   0  0  0  0  0  0  0  0  0  0  0  0
   34.4156    5.7559   -0.3296 C   0  0  0  0  0  0  0  0  0  0  0  0
   35.8521    2.7032    0.5731 C   0  0  0  0  0  0  0  0  0  0  0  0
   37.1071    3.3204    0.8854 C   0  0  0  0  0  0  0  0  0  0  0  0
   38.0588    2.3693    0.7288 C   0  0  0  0  0  0  0  0  0  0  0  0
   36.0391    1.3768    0.2626 N   0  0  0  0  0  0  0  0  0  0  0  0
   37.3854    1.1758    0.3223 C   0  0  0  0  0  0  0  0  0  0  0  0
   38.0521   -0.0078   -0.0226 C   0  0  0  0  0  0  0  0  0  0  0  0
   37.3760   -1.1930   -0.3398 C   0  0  0  0  0  0  0  0  0  0  0  0
   38.0400   -2.4086   -0.6924 C   0  0  0  0  0  0  0  0  0  0  0  0
   37.0834   -3.3638   -0.7816 C   0  0  0  0  0  0  0  0  0  0  0  0
   35.8347   -2.7251   -0.4891 C   0  0  0  0  0  0  0  0  0  0  0  0
   36.0280   -1.3839   -0.2641 N   0  0  0  0  0  0  0  0  0  0  0  0
   34.6180   -3.3908   -0.4184 C   0  0  0  0  0  0  0  0  0  0  0  0
   34.6124   -4.8647   -0.5501 C   0  0  0  0  0  0  0  0  0  0  0  0
   33.9082   -5.4816   -1.5880 C   0  0  0  0  0  0  0  0  0  0  0  0
   33.9056   -6.8597   -1.7106 C   0  0  0  0  0  0  0  0  0  0  0  0
   34.6033   -7.6491   -0.7935 C   0  0  0  0  0  0  0  0  0  0  0  0
   34.6111   -9.1204   -0.8979 C   0  0  0  0  0  0  0  0  0  0  0  0
   35.1925   -9.8416   -0.1287 O   0  0  0  0  0  0  0  0  0  0  0  0
   35.3083   -7.0321    0.2451 C   0  0  0  0  0  0  0  0  0  0  0  0
   35.3160   -5.6558    0.3635 C   0  0  0  0  0  0  0  0  0  0  0  0
   33.4055   -2.7281   -0.2530 C   0  0  0  0  0  0  0  0  0  0  0  0
   32.1313   -3.3833   -0.1772 C   0  0  0  0  0  0  0  0  0  0  0  0
   31.1905   -2.4096   -0.1769 C   0  0  0  0  0  0  0  0  0  0  0  0
   31.8913   -1.1619   -0.2255 C   0  0  0  0  0  0  0  0  0  0  0  0
   33.2455   -1.3694   -0.2291 N   0  0  0  0  0  0  0  0  0  0  0  0
   30.1872    0.0828   -0.3856 H   0  0  0  0  0  0  0  0  0  0  0  0
   30.2081    2.6797   -0.4484 H   0  0  0  0  0  0  0  0  0  0  0  0
   32.0915    4.5520    0.0194 H   0  0  0  0  0  0  0  0  0  0  0  0
   35.0816    4.6476    2.8078 H   0  0  0  0  0  0  0  0  0  0  0  0
   35.0833    7.0950    3.2331 H   0  0  0  0  0  0  0  0  0  0  0  0
   34.4600    9.6928    0.5903 H   0  0  0  0  0  0  0  0  0  0  0  0
   34.2346    7.8119   -0.9057 H   0  0  0  0  0  0  0  0  0  0  0  0
   34.2396    5.3789   -1.3307 H   0  0  0  0  0  0  0  0  0  0  0  0
   37.2352    4.3525    1.1680 H   0  0  0  0  0  0  0  0  0  0  0  0
   39.1233    2.4559    0.8723 H   0  0  0  0  0  0  0  0  0  0  0  0
   39.1016   -2.5058   -0.8493 H   0  0  0  0  0  0  0  0  0  0  0  0
   37.2016   -4.4048   -1.0346 H   0  0  0  0  0  0  0  0  0  0  0  0
   33.3774   -4.8710   -2.3096 H   0  0  0  0  0  0  0  0  0  0  0  0
   33.3607   -7.3300   -2.5226 H   0  0  0  0  0  0  0  0  0  0  0  0
   34.0303   -9.5197   -1.7564 H   0  0  0  0  0  0  0  0  0  0  0  0
   35.8459   -7.6534    0.9535 H   0  0  0  0  0  0  0  0  0  0  0  0
   35.8539   -5.1804    1.1759 H   0  0  0  0  0  0  0  0  0  0  0  0
   31.9872   -4.4505   -0.1303 H   0  0  0  0  0  0  0  0  0  0  0  0
   30.1172   -2.5075   -0.1407 H   0  0  0  0  0  0  0  0  0  0  0  0
   56.3208   -0.0525   -0.1016 Fe  0  0  0  0  0  0  0  0  0  0  0  0
   59.7045   -0.0772   -0.3594 C   0  0  0  0  0  0  0  0  0  0  0  0
   59.0542   -1.2931   -0.3272 C   0  0  0  0  0  0  0  0  0  0  0  0
   59.7350   -2.5523   -0.3585 C   0  0  0  0  0  0  0  0  0  0  0  0
   58.7808   -3.5100   -0.2945 C   0  0  0  0  0  0  0  0  0  0  0  0
   57.5171   -2.8325   -0.2468 C   0  0  0  0  0  0  0  0  0  0  0  0
   57.6989   -1.4763   -0.2452 N   0  0  0  0  0  0  0  0  0  0  0  0
   56.2889   -3.4841   -0.2171 C   0  0  0  0  0  0  0  0  0  0  0  0
   56.2699   -4.9653   -0.2452 C   0  0  0  0  0  0  0  0  0  0  0  0
   55.7501   -5.6821    0.8366 C   0  0  0  0  0  0  0  0  0  0  0  0
   55.7289   -7.0632    0.8118 C   0  0  0  0  0  0  0  0  0  0  0  0
   56.2208   -7.7584   -0.2978 C   0  0  0  0  0  0  0  0  0  0  0  0
   56.1800   -9.2326   -0.3026 C   0  0  0  0  0  0  0  0  0  0  0  0
   55.7368   -9.8919    0.6024 O   0  0  0  0  0  0  0  0  0  0  0  0
   56.7380   -7.0427   -1.3801 C   0  0  0  0  0  0  0  0  0  0  0  0
   56.7645   -5.6595   -1.3523 C   0  0  0  0  0  0  0  0  0  0  0  0
   55.0757   -2.8119   -0.1815 C   0  0  0  0  0  0  0  0  0  0  0  0
   53.8033   -3.4676   -0.2436 C   0  0  0  0  0  0  0  0  0  0  0  0
   52.8619   -2.4949   -0.2080 C   0  0  0  0  0  0  0  0  0  0  0  0
   54.9088   -1.4490   -0.1217 N   0  0  0  0  0  0  0  0  0  0  0  0
   53.5601   -1.2502   -0.1249 C   0  0  0  0  0  0  0  0  0  0  0  0
   52.9086   -0.0170   -0.0024 C   0  0  0  0  0  0  0  0  0  0  0  0
   53.5916    1.1975    0.1335 C   0  0  0  0  0  0  0  0  0  0  0  0
   52.9250    2.4530    0.2857 C   0  0  0  0  0  0  0  0  0  0  0  0
   53.8902    3.3996    0.3590 C   0  0  0  0  0  0  0  0  0  0  0  0
   55.1457    2.7178    0.2465 C   0  0  0  0  0  0  0  0  0  0  0  0
   54.9442    1.3648    0.1104 N   0  0  0  0  0  0  0  0  0  0  0  0
   56.3706    3.3674    0.2018 C   0  0  0  0  0  0  0  0  0  0  0  0
   56.3908    4.8425    0.3417 C   0  0  0  0  0  0  0  0  0  0  0  0
   56.8132    5.6462   -0.7203 C   0  0  0  0  0  0  0  0  0  0  0  0
   56.8295    7.0238   -0.5920 C   0  0  0  0  0  0  0  0  0  0  0  0
   56.4291    7.6236    0.6042 C   0  0  0  0  0  0  0  0  0  0  0  0
   56.4435    9.0893    0.7691 C   0  0  0  0  0  0  0  0  0  0  0  0
   56.1164    9.6508    1.7827 O   0  0  0  0  0  0  0  0  0  0  0  0
   56.0072    6.8186    1.6674 C   0  0  0  0  0  0  0  0  0  0  0  0
   55.9848    5.4433    1.5366 C   0  0  0  0  0  0  0  0  0  0  0  0
   57.5771    2.7019    0.0117 C   0  0  0  0  0  0  0  0  0  0  0  0
   58.8514    3.3588   -0.0446 C   0  0  0  0  0  0  0  0  0  0  0  0
   59.7817    2.3924   -0.2233 C   0  0  0  0  0  0  0  0  0  0  0  0
   59.0767    1.1464   -0.2558 C   0  0  0  0  0  0  0  0  0  0  0  0
   57.7289    1.3480   -0.1134 N   0  0  0  0  0  0  0  0  0  0  0  0
   60.7852   -0.0846   -0.4461 H   0  0  0  0  0  0  0  0  0  0  0  0
   60.8059   -2.6676   -0.4110 H   0  0  0  0  0  0  0  0  0  0  0  0
   58.9086   -4.5800   -0.2759 H   0  0  0  0  0  0  0  0  0  0  0  0
   55.3765   -5.1449    1.7010 H   0  0  0  0  0  0  0  0  0  0  0  0
   55.3320   -7.6276    1.6488 H   0  0  0  0  0  0  0  0  0  0  0  0
   56.5948   -9.6973   -1.2223 H   0  0  0  0  0  0  0  0  0  0  0  0
   57.1178   -7.5745   -2.2464 H   0  0  0  0  0  0  0  0  0  0  0  0
   57.1543   -5.1060   -2.1991 H   0  0  0  0  0  0  0  0  0  0  0  0
   53.6591   -4.5331   -0.3172 H   0  0  0  0  0  0  0  0  0  0  0  0
   51.7895   -2.5986   -0.2273 H   0  0  0  0  0  0  0  0  0  0  0  0
   51.8555    2.5806    0.3218 H   0  0  0  0  0  0  0  0  0  0  0  0
   53.7723    4.4659    0.4610 H   0  0  0  0  0  0  0  0  0  0  0  0
   57.1137    5.1832   -1.6534 H   0  0  0  0  0  0  0  0  0  0  0  0
   57.1539    7.6414   -1.4231 H   0  0  0  0  0  0  0  0  0  0  0  0
   56.7850    9.6459   -0.1294 H   0  0  0  0  0  0  0  0  0  0  0  0
   55.6997    7.2935    2.5928 H   0  0  0  0  0  0  0  0  0  0  0  0
   55.6664    4.8204    2.3649 H   0  0  0  0  0  0  0  0  0  0  0  0
   59.0028    4.4216    0.0509 H   0  0  0  0  0  0  0  0  0  0  0  0
   60.8517    2.4922   -0.3122 H   0  0  0  0  0  0  0  0  0  0  0  0
   39.4550   -0.0104   -0.0272 C   0  0  0  0  0  0  0  0  0  0  0  0
   40.6745   -0.0093   -0.0291 C   0  0  0  0  0  0  0  0  0  0  0  0
   50.2860    0.0066   -0.0009 C   0  0  0  0  0  0  0  0  0  0  0  0
   51.5050   -0.0017    0.0020 C   0  0  0  0  0  0  0  0  0  0  0  0
   45.4805    0.0037   -0.0286 Fe  0  0  0  0  0  0  0  0  0  0  0  0
   42.0761   -0.0074   -0.0236 C   0  0  0  0  0  0  0  0  0  0  0  0
   42.7510    1.2217    0.0169 C   0  0  0  0  0  0  0  0  0  0  0  0
   42.1007    2.4930   -0.0145 C   0  0  0  0  0  0  0  0  0  0  0  0
   43.0533    3.4248    0.2393 C   0  0  0  0  0  0  0  0  0  0  0  0
   44.2821    2.7151    0.4284 C   0  0  0  0  0  0  0  0  0  0  0  0
   44.0892    1.3710    0.2274 N   0  0  0  0  0  0  0  0  0  0  0  0
   45.4706    3.2929    0.8628 C   0  0  0  0  0  0  0  0  0  0  0  0
   45.4666    4.7227    1.2394 C   0  0  0  0  0  0  0  0  0  0  0  0
   46.3124    5.6277    0.5903 C   0  0  0  0  0  0  0  0  0  0  0  0
   46.3053    6.9636    0.9418 C   0  0  0  0  0  0  0  0  0  0  0  0
   45.4593    7.4240    1.9560 C   0  0  0  0  0  0  0  0  0  0  0  0
   45.4755    8.8553    2.3148 C   0  0  0  0  0  0  0  0  0  0  0  0
   46.1746    9.6708    1.7713 O   0  0  0  0  0  0  0  0  0  0  0  0
   44.6166    6.5206    2.6075 C   0  0  0  0  0  0  0  0  0  0  0  0
   44.6171    5.1843    2.2491 C   0  0  0  0  0  0  0  0  0  0  0  0
   46.6637    2.5836    0.9526 C   0  0  0  0  0  0  0  0  0  0  0  0
   47.8934    3.1211    1.4520 C   0  0  0  0  0  0  0  0  0  0  0  0
   48.8530    2.1962    1.2008 C   0  0  0  0  0  0  0  0  0  0  0  0
   46.8623    1.3136    0.4704 N   0  0  0  0  0  0  0  0  0  0  0  0
   48.2051    1.0965    0.5591 C   0  0  0  0  0  0  0  0  0  0  0  0
   48.8839    0.0063   -0.0027 C   0  0  0  0  0  0  0  0  0  0  0  0
   48.2116   -1.0875   -0.5664 C   0  0  0  0  0  0  0  0  0  0  0  0
   48.8649   -2.1815   -1.2118 C   0  0  0  0  0  0  0  0  0  0  0  0
   47.9111   -3.1136   -1.4599 C   0  0  0  0  0  0  0  0  0  0  0  0
   46.6794   -2.5849   -0.9571 C   0  0  0  0  0  0  0  0  0  0  0  0
   46.8718   -1.3168   -0.4682 N   0  0  0  0  0  0  0  0  0  0  0  0
   45.4883   -3.2983   -0.8712 C   0  0  0  0  0  0  0  0  0  0  0  0
   45.4875   -4.7253   -1.2582 C   0  0  0  0  0  0  0  0  0  0  0  0
   46.3319   -5.6343   -0.6144 C   0  0  0  0  0  0  0  0  0  0  0  0
   46.3298   -6.9697   -0.9766 C   0  0  0  0  0  0  0  0  0  0  0  0
   45.4894   -7.4206   -1.9969 C   0  0  0  0  0  0  0  0  0  0  0  0
   45.4727   -8.8375   -2.4087 C   0  0  0  0  0  0  0  0  0  0  0  0
   44.7745   -9.2674   -3.2902 O   0  0  0  0  0  0  0  0  0  0  0  0
   44.6471   -6.5106   -2.6439 C   0  0  0  0  0  0  0  0  0  0  0  0
   44.6426   -5.1791   -2.2761 C   0  0  0  0  0  0  0  0  0  0  0  0
   44.2961   -2.7236   -0.4438 C   0  0  0  0  0  0  0  0  0  0  0  0
   43.0667   -3.4366   -0.2703 C   0  0  0  0  0  0  0  0  0  0  0  0
   42.1081   -2.5070   -0.0328 C   0  0  0  0  0  0  0  0  0  0  0  0
   42.7555   -1.2339   -0.0559 C   0  0  0  0  0  0  0  0  0  0  0  0
   44.0981   -1.3803   -0.2400 N   0  0  0  0  0  0  0  0  0  0  0  0
   41.0515    2.6426   -0.2099 H   0  0  0  0  0  0  0  0  0  0  0  0
   42.9428    4.4958    0.2885 H   0  0  0  0  0  0  0  0  0  0  0  0
   46.9602    5.2757   -0.2045 H   0  0  0  0  0  0  0  0  0  0  0  0
   46.9531    7.6734    0.4388 H   0  0  0  0  0  0  0  0  0  0  0  0
   44.7808    9.1276    3.1374 H   0  0  0  0  0  0  0  0  0  0  0  0
   43.9597    6.8689    3.3978 H   0  0  0  0  0  0  0  0  0  0  0  0
   43.9709    4.4828    2.7645 H   0  0  0  0  0  0  0  0  0  0  0  0
   48.0003    4.0795    1.9333 H   0  0  0  0  0  0  0  0  0  0  0  0
   49.9057    2.2429    1.4272 H   0  0  0  0  0  0  0  0  0  0  0  0
   49.9165   -2.2194   -1.4447 H   0  0  0  0  0  0  0  0  0  0  0  0
   48.0230   -4.0701   -1.9439 H   0  0  0  0  0  0  0  0  0  0  0  0
   46.9766   -5.2890    0.1859 H   0  0  0  0  0  0  0  0  0  0  0  0
   46.9833   -7.6699   -0.4666 H   0  0  0  0  0  0  0  0  0  0  0  0
   46.1648   -9.4883   -1.8334 H   0  0  0  0  0  0  0  0  0  0  0  0
   44.0007   -6.8694   -3.4377 H   0  0  0  0  0  0  0  0  0  0  0  0
   43.9980   -4.4734   -2.7877 H   0  0  0  0  0  0  0  0  0  0  0  0
   42.9597   -4.5078   -0.3209 H   0  0  0  0  0  0  0  0  0  0  0  0
   41.0563   -2.6589    0.1453 H   0  0  0  0  0  0  0  0  0  0  0  0
  2  3  4  0  0  0  0
  3  4  4  0  0  0  0
  4  5  2  0  0  0  0
  5  6  4  0  0  0  0
  1  7  1  0  0  0  0
  3  7  4  0  0  0  0
  6  7  4  0  0  0  0
  6  8  4  0  0  0  0
  8  9  1  0  0  0  0
  9 10  4  0  0  0  0
 10 11  4  0  0  0  0
 11 12  4  0  0  0  0
 12 13  1  0  0  0  0
 13 14  2  0  0  0  0
 12 15  4  0  0  0  0
  9 16  4  0  0  0  0
 15 16  4  0  0  0  0
  8 17  4  0  0  0  0
 17 18  4  0  0  0  0
 18 19  2  0  0  0  0
  1 20  1  0  0  0  0
 17 20  4  0  0  0  0
 19 21  4  0  0  0  0
 20 21  4  0  0  0  0
 21 22  4  0  0  0  0
 22 23  4  0  0  0  0
 23 24  4  0  0  0  0
 24 25  2  0  0  0  0
 25 26  4  0  0  0  0
  1 27  1  0  0  0  0
 23 27  4  0  0  0  0
 26 27  4  0  0  0  0
 26 28  4  0  0  0  0
 28 29  1  0  0  0  0
 29 30  4  0  0  0  0
 30 31  4  0  0  0  0
 31 32  4  0  0  0  0
 32 33  1  0  0  0  0
 33 34  2  0  0  0  0
 32 35  4  0  0  0  0
 29 36  4  0  0  0  0
 35 36  4  0  0  0  0
 28 37  4  0  0  0  0
 37 38  4  0  0  0  0
 38 39  2  0  0  0  0
  2 40  4  0  0  0  0
 39 40  4  0  0  0  0
  1 41  1  0  0  0  0
 37 41  4  0  0  0  0
 40 41  4  0  0  0  0
  2 42  1  0  0  0  0
  4 43  1  0  0  0  0
  5 44  1  0  0  0  0
 10 45  1  0  0  0  0
 11 46  1  0  0  0  0
 13 47  1  0  0  0  0
 15 48  1  0  0  0  0
 16 49  1  0  0  0  0
 18 50  1  0  0  0  0
 19 51  1  0  0  0  0
 24 52  1  0  0  0  0
 25 53  1  0  0  0  0
 30 54  1  0  0  0  0
 31 55  1  0  0  0  0
 33 56  1  0  0  0  0
 35 57  1  0  0  0  0
 36 58  1  0  0  0  0
 38 59  1  0  0  0  0
 39 60  1  0  0  0  0
 62 63  4  0  0  0  0
 63 64  4  0  0  0  0
 64 65  2  0  0  0  0
 65 66  4  0  0  0  0
 61 67  1  0  0  0  0
 63 67  4  0  0  0  0
 66 67  4  0  0  0  0
 66 68  4  0  0  0  0
 68 69  1  0  0  0  0
 69 70  4  0  0  0  0
 70 71  4  0  0  0  0
 71 72  4  0  0  0  0
 72 73  1  0  0  0  0
 73 74  2  0  0  0  0
 72 75  4  0  0  0  0
 69 76  4  0  0  0  0
 75 76  4  0  0  0  0
 68 77  4  0  0  0  0
 77 78  4  0  0  0  0
 78 79  2  0  0  0  0
 61 80  1  0  0  0  0
 77 80  4  0  0  0  0
 79 81  4  0  0  0  0
 80 81  4  0  0  0  0
 81 82  4  0  0  0  0
 82 83  4  0  0  0  0
 83 84  4  0  0  0  0
 84 85  2  0  0  0  0
 85 86  4  0  0  0  0
 61 87  1  0  0  0  0
 83 87  4  0  0  0  0
 86 87  4  0  0  0  0
 86 88  4  0  0  0  0
 88 89  1  0  0  0  0
 89 90  4  0  0  0  0
 90 91  4  0  0  0  0
 91 92  4  0  0  0  0
 92 93  1  0  0  0  0
 93 94  2  0  0  0  0
 92 95  4  0  0  0  0
 89 96  4  0  0  0  0
 95 96  4  0  0  0  0
 88 97  4  0  0  0  0
 97 98  4  0  0  0  0
 98 99  2  0  0  0  0
 62100  4  0  0  0  0
 99100  4  0  0  0  0
 61101  1  0  0  0  0
 97101  4  0  0  0  0
100101  4  0  0  0  0
 62102  1  0  0  0  0
 64103  1  0  0  0  0
 65104  1  0  0  0  0
 70105  1  0  0  0  0
 71106  1  0  0  0  0
 73107  1  0  0  0  0
 75108  1  0  0  0  0
 76109  1  0  0  0  0
 78110  1  0  0  0  0
 79111  1  0  0  0  0
 84112  1  0  0  0  0
 85113  1  0  0  0  0
 90114  1  0  0  0  0
 91115  1  0  0  0  0
 93116  1  0  0  0  0
 95117  1  0  0  0  0
 96118  1  0  0  0  0
 98119  1  0  0  0  0
 99120  1  0  0  0  0
 22121  4  0  0  0  0
121122  3  0  0  0  0
 82124  1  0  0  0  0
123124  3  0  0  0  0
122126  4  0  0  0  0
126127  4  0  0  0  0
127128  4  0  0  0  0
128129  2  0  0  0  0
129130  4  0  0  0  0
125131  1  0  0  0  0
127131  4  0  0  0  0
130131  4  0  0  0  0
130132  4  0  0  0  0
132133  1  0  0  0  0
133134  4  0  0  0  0
134135  4  0  0  0  0
135136  4  0  0  0  0
136137  1  0  0  0  0
137138  2  0  0  0  0
136139  4  0  0  0  0
133140  4  0  0  0  0
139140  4  0  0  0  0
132141  4  0  0  0  0
141142  4  0  0  0  0
142143  2  0  0  0  0
125144  1  0  0  0  0
141144  4  0  0  0  0
143145  4  0  0  0  0
144145  4  0  0  0  0
123146  4  0  0  0  0
145146  4  0  0  0  0
146147  4  0  0  0  0
147148  4  0  0  0  0
148149  2  0  0  0  0
149150  4  0  0  0  0
125151  1  0  0  0  0
147151  4  0  0  0  0
150151  4  0  0  0  0
150152  4  0  0  0  0
152153  1  0  0  0  0
153154  4  0  0  0  0
154155  4  0  0  0  0
155156  4  0  0  0  0
156157  1  0  0  0  0
157158  2  0  0  0  0
156159  4  0  0  0  0
153160  4  0  0  0  0
159160  4  0  0  0  0
152161  4  0  0  0  0
161162  4  0  0  0  0
162163  2  0  0  0  0
126164  4  0  0  0  0
163164  4  0  0  0  0
125165  1  0  0  0  0
161165  4  0  0  0  0
164165  4  0  0  0  0
128166  1  0  0  0  0
129167  1  0  0  0  0
134168  1  0  0  0  0
135169  1  0  0  0  0
137170  1  0  0  0  0
139171  1  0  0  0  0
140172  1  0  0  0  0
142173  1  0  0  0  0
143174  1  0  0  0  0
148175  1  0  0  0  0
149176  1  0  0  0  0
154177  1  0  0  0  0
155178  1  0  0  0  0
157179  1  0  0  0  0
159180  1  0  0  0  0
160181  1  0  0  0  0
162182  1  0  0  0  0
163183  1  0  0  0  0
M  END
