 xtb: 6.5.1 (b24c23e)
          07292216043D

154185  0     0  0            999 V2000
   24.2495   -0.0281   -0.0252 Fe  0  0  0  0  0  0  0  0  0  0  0  0
   20.8370   -0.0458   -0.0483 C   0  0  0  0  0  0  0  0  0  0  0  0
   21.4952   -0.9014   -0.9080 C   0  0  0  0  0  0  0  0  0  0  0  0
   20.8275   -1.7956   -1.8083 C   0  0  0  0  0  0  0  0  0  0  0  0
   21.7942   -2.4677   -2.4764 C   0  0  0  0  0  0  0  0  0  0  0  0
   23.0493   -1.9820   -1.9823 C   0  0  0  0  0  0  0  0  0  0  0  0
   22.8540   -1.0248   -1.0248 N   0  0  0  0  0  0  0  0  0  0  0  0
   24.2755   -2.4378   -2.4260 C   0  0  0  0  0  0  0  0  0  0  0  0
   25.4893   -1.9811   -1.9609 C   0  0  0  0  0  0  0  0  0  0  0  0
   26.7525   -2.4651   -2.4313 C   0  0  0  0  0  0  0  0  0  0  0  0
   27.7060   -1.7835   -1.7524 C   0  0  0  0  0  0  0  0  0  0  0  0
   25.6712   -1.0139   -1.0015 N   0  0  0  0  0  0  0  0  0  0  0  0
   27.0208   -0.8871   -0.8711 C   0  0  0  0  0  0  0  0  0  0  0  0
   27.6815   -0.0062   -0.0054 C   0  0  0  0  0  0  0  0  0  0  0  0
   26.9999    0.8654    0.8530 C   0  0  0  0  0  0  0  0  0  0  0  0
   27.6636    1.7688    1.7438 C   0  0  0  0  0  0  0  0  0  0  0  0
   26.6940    2.4378    2.4120 C   0  0  0  0  0  0  0  0  0  0  0  0
   25.4424    1.9397    1.9255 C   0  0  0  0  0  0  0  0  0  0  0  0
   25.6473    0.9750    0.9682 N   0  0  0  0  0  0  0  0  0  0  0  0
   24.2177    2.3825    2.3751 C   0  0  0  0  0  0  0  0  0  0  0  0
   23.0025    1.9133    1.9153 C   0  0  0  0  0  0  0  0  0  0  0  0
   21.7358    2.3849    2.3934 C   0  0  0  0  0  0  0  0  0  0  0  0
   20.7853    1.7028    1.7124 C   0  0  0  0  0  0  0  0  0  0  0  0
   21.4743    0.8165    0.8203 C   0  0  0  0  0  0  0  0  0  0  0  0
   22.8301    0.9538    0.9558 N   0  0  0  0  0  0  0  0  0  0  0  0
   19.7529   -0.0519   -0.0553 H   0  0  0  0  0  0  0  0  0  0  0  0
   19.7563   -1.8814   -1.9002 H   0  0  0  0  0  0  0  0  0  0  0  0
   21.6900   -3.2256   -3.2367 H   0  0  0  0  0  0  0  0  0  0  0  0
   24.2832   -3.2064   -3.1908 H   0  0  0  0  0  0  0  0  0  0  0  0
   26.8730   -3.2276   -3.1845 H   0  0  0  0  0  0  0  0  0  0  0  0
   28.7784   -1.8662   -1.8285 H   0  0  0  0  0  0  0  0  0  0  0  0
   28.7340    1.8642    1.8324 H   0  0  0  0  0  0  0  0  0  0  0  0
   26.7962    3.2008    3.1674 H   0  0  0  0  0  0  0  0  0  0  0  0
   24.2069    3.1503    3.1406 H   0  0  0  0  0  0  0  0  0  0  0  0
   21.6135    3.1414    3.1524 H   0  0  0  0  0  0  0  0  0  0  0  0
   19.7121    1.7769    1.7903 H   0  0  0  0  0  0  0  0  0  0  0  0
   64.6497    0.0067   -0.0111 Fe  0  0  0  0  0  0  0  0  0  0  0  0
   68.0609    0.0430   -0.0195 C   0  0  0  0  0  0  0  0  0  0  0  0
   67.3995    1.2520   -0.0904 C   0  0  0  0  0  0  0  0  0  0  0  0
   68.0629    2.5207   -0.1704 C   0  0  0  0  0  0  0  0  0  0  0  0
   67.0942    3.4663   -0.1777 C   0  0  0  0  0  0  0  0  0  0  0  0
   65.8416    2.7729   -0.1021 C   0  0  0  0  0  0  0  0  0  0  0  0
   66.0406    1.4198   -0.0623 N   0  0  0  0  0  0  0  0  0  0  0  0
   64.6161    3.4070   -0.0443 C   0  0  0  0  0  0  0  0  0  0  0  0
   63.4057    2.7519    0.0282 C   0  0  0  0  0  0  0  0  0  0  0  0
   62.1424    3.4234    0.0963 C   0  0  0  0  0  0  0  0  0  0  0  0
   61.1911    2.4593    0.1123 C   0  0  0  0  0  0  0  0  0  0  0  0
   63.2267    1.3897    0.0147 N   0  0  0  0  0  0  0  0  0  0  0  0
   61.8772    1.2041    0.0521 C   0  0  0  0  0  0  0  0  0  0  0  0
   61.2198   -0.0299   -0.0128 C   0  0  0  0  0  0  0  0  0  0  0  0
   61.9040   -1.2493   -0.0739 C   0  0  0  0  0  0  0  0  0  0  0  0
   61.2443   -2.5190   -0.1304 C   0  0  0  0  0  0  0  0  0  0  0  0
   62.2155   -3.4628   -0.1081 C   0  0  0  0  0  0  0  0  0  0  0  0
   63.4643   -2.7649   -0.0407 C   0  0  0  0  0  0  0  0  0  0  0  0
   63.2568   -1.4065   -0.0331 N   0  0  0  0  0  0  0  0  0  0  0  0
   64.6885   -3.3934    0.0335 C   0  0  0  0  0  0  0  0  0  0  0  0
   65.9004   -2.7329    0.0844 C   0  0  0  0  0  0  0  0  0  0  0  0
   67.1677   -3.3995    0.1560 C   0  0  0  0  0  0  0  0  0  0  0  0
   68.1163   -2.4339    0.1382 C   0  0  0  0  0  0  0  0  0  0  0  0
   67.4258   -1.1798    0.0573 C   0  0  0  0  0  0  0  0  0  0  0  0
   66.0707   -1.3762    0.0377 N   0  0  0  0  0  0  0  0  0  0  0  0
   69.1449    0.0545   -0.0230 H   0  0  0  0  0  0  0  0  0  0  0  0
   69.1333    2.6478   -0.2111 H   0  0  0  0  0  0  0  0  0  0  0  0
   67.1958    4.5390   -0.2259 H   0  0  0  0  0  0  0  0  0  0  0  0
   64.6053    4.4911   -0.0551 H   0  0  0  0  0  0  0  0  0  0  0  0
   62.0204    4.4946    0.1241 H   0  0  0  0  0  0  0  0  0  0  0  0
   60.1193    2.5689    0.1552 H   0  0  0  0  0  0  0  0  0  0  0  0
   60.1751   -2.6508   -0.1751 H   0  0  0  0  0  0  0  0  0  0  0  0
   62.1157   -4.5364   -0.1315 H   0  0  0  0  0  0  0  0  0  0  0  0
   64.7014   -4.4775    0.0487 H   0  0  0  0  0  0  0  0  0  0  0  0
   67.2918   -4.4697    0.2085 H   0  0  0  0  0  0  0  0  0  0  0  0
   69.1893   -2.5383    0.1731 H   0  0  0  0  0  0  0  0  0  0  0  0
   30.3062    0.0076    0.0110 C   0  0  0  0  0  0  0  0  0  0  0  0
   29.0822    0.0020    0.0034 C   0  0  0  0  0  0  0  0  0  0  0  0
   31.6521    0.0154    0.0139 C   0  0  0  0  0  0  0  0  0  0  0  0
   32.8763    0.0205    0.0161 C   0  0  0  0  0  0  0  0  0  0  0  0
   43.7786   -0.0186   -0.0164 C   0  0  0  0  0  0  0  0  0  0  0  0
   42.5537   -0.0169   -0.0175 C   0  0  0  0  0  0  0  0  0  0  0  0
   45.1231   -0.0263   -0.0197 C   0  0  0  0  0  0  0  0  0  0  0  0
   46.3480   -0.0344   -0.0272 C   0  0  0  0  0  0  0  0  0  0  0  0
   57.2467   -0.0688   -0.0252 C   0  0  0  0  0  0  0  0  0  0  0  0
   56.0232   -0.0734   -0.0281 C   0  0  0  0  0  0  0  0  0  0  0  0
   58.5941   -0.0601   -0.0233 C   0  0  0  0  0  0  0  0  0  0  0  0
   59.8173   -0.0451   -0.0153 C   0  0  0  0  0  0  0  0  0  0  0  0
   37.7159    0.0013    0.0016 Fe  0  0  0  0  0  0  0  0  0  0  0  0
   34.2760    0.0151    0.0136 C   0  0  0  0  0  0  0  0  0  0  0  0
   34.9550    0.9222    0.8381 C   0  0  0  0  0  0  0  0  0  0  0  0
   34.2886    1.8594    1.6895 C   0  0  0  0  0  0  0  0  0  0  0  0
   35.2573    2.5642    2.3232 C   0  0  0  0  0  0  0  0  0  0  0  0
   36.5083    2.0518    1.8533 C   0  0  0  0  0  0  0  0  0  0  0  0
   36.3073    1.0438    0.9434 N   0  0  0  0  0  0  0  0  0  0  0  0
   37.7339    2.5273    2.2724 C   0  0  0  0  0  0  0  0  0  0  0  0
   38.9523    2.0512    1.8363 C   0  0  0  0  0  0  0  0  0  0  0  0
   40.2109    2.5623    2.2875 C   0  0  0  0  0  0  0  0  0  0  0  0
   41.1693    1.8498    1.6472 C   0  0  0  0  0  0  0  0  0  0  0  0
   39.1396    1.0374    0.9287 N   0  0  0  0  0  0  0  0  0  0  0  0
   40.4892    0.9093    0.8099 C   0  0  0  0  0  0  0  0  0  0  0  0
   41.1555   -0.0108   -0.0117 C   0  0  0  0  0  0  0  0  0  0  0  0
   40.4757   -0.9259   -0.8280 C   0  0  0  0  0  0  0  0  0  0  0  0
   41.1428   -1.8710   -1.6706 C   0  0  0  0  0  0  0  0  0  0  0  0
   40.1746   -2.5765   -2.3038 C   0  0  0  0  0  0  0  0  0  0  0  0
   38.9231   -2.0567   -1.8428 C   0  0  0  0  0  0  0  0  0  0  0  0
   39.1244   -1.0445   -0.9364 N   0  0  0  0  0  0  0  0  0  0  0  0
   37.6982   -2.5250   -2.2688 C   0  0  0  0  0  0  0  0  0  0  0  0
   36.4793   -2.0408   -1.8401 C   0  0  0  0  0  0  0  0  0  0  0  0
   35.2211   -2.5443   -2.3000 C   0  0  0  0  0  0  0  0  0  0  0  0
   34.2626   -1.8308   -1.6608 C   0  0  0  0  0  0  0  0  0  0  0  0
   34.9423   -0.8979   -0.8151 C   0  0  0  0  0  0  0  0  0  0  0  0
   36.2927   -1.0303   -0.9298 N   0  0  0  0  0  0  0  0  0  0  0  0
   33.2181    1.9523    1.7782 H   0  0  0  0  0  0  0  0  0  0  0  0
   35.1536    3.3598    3.0437 H   0  0  0  0  0  0  0  0  0  0  0  0
   37.7392    3.3337    2.9975 H   0  0  0  0  0  0  0  0  0  0  0  0
   40.3262    3.3621    3.0016 H   0  0  0  0  0  0  0  0  0  0  0  0
   42.2411    1.9392    1.7229 H   0  0  0  0  0  0  0  0  0  0  0  0
   42.2134   -1.9678   -1.7543 H   0  0  0  0  0  0  0  0  0  0  0  0
   40.2785   -3.3769   -3.0190 H   0  0  0  0  0  0  0  0  0  0  0  0
   37.6922   -3.3320   -2.9932 H   0  0  0  0  0  0  0  0  0  0  0  0
   35.1059   -3.3403   -3.0184 H   0  0  0  0  0  0  0  0  0  0  0  0
   33.1908   -1.9156   -1.7419 H   0  0  0  0  0  0  0  0  0  0  0  0
   51.1842   -0.0524   -0.0315 Fe  0  0  0  0  0  0  0  0  0  0  0  0
   47.7463   -0.0405   -0.0282 C   0  0  0  0  0  0  0  0  0  0  0  0
   48.4236    0.8658    0.7998 C   0  0  0  0  0  0  0  0  0  0  0  0
   47.7555    1.7980    1.6561 C   0  0  0  0  0  0  0  0  0  0  0  0
   48.7220    2.5313    2.2597 C   0  0  0  0  0  0  0  0  0  0  0  0
   49.9738    2.0415    1.7672 C   0  0  0  0  0  0  0  0  0  0  0  0
   49.7743    1.0105    0.8816 N   0  0  0  0  0  0  0  0  0  0  0  0
   51.1955    2.5738    2.1204 C   0  0  0  0  0  0  0  0  0  0  0  0
   52.4137    2.1170    1.6595 C   0  0  0  0  0  0  0  0  0  0  0  0
   53.6694    2.6920    2.0347 C   0  0  0  0  0  0  0  0  0  0  0  0
   54.6295    1.9537    1.4266 C   0  0  0  0  0  0  0  0  0  0  0  0
   52.6028    1.0466    0.8217 N   0  0  0  0  0  0  0  0  0  0  0  0
   53.9535    0.9327    0.6861 C   0  0  0  0  0  0  0  0  0  0  0  0
   54.6217   -0.0695   -0.0289 C   0  0  0  0  0  0  0  0  0  0  0  0
   53.9452   -1.0642   -0.7459 C   0  0  0  0  0  0  0  0  0  0  0  0
   54.6120   -2.0897   -1.4886 C   0  0  0  0  0  0  0  0  0  0  0  0
   53.6456   -2.8149   -2.1022 C   0  0  0  0  0  0  0  0  0  0  0  0
   52.3950   -2.2284   -1.7274 C   0  0  0  0  0  0  0  0  0  0  0  0
   52.5934   -1.1635   -0.8849 N   0  0  0  0  0  0  0  0  0  0  0  0
   51.1731   -2.6725   -2.1909 C   0  0  0  0  0  0  0  0  0  0  0  0
   49.9556   -2.1328   -1.8341 C   0  0  0  0  0  0  0  0  0  0  0  0
   48.6993   -2.6125   -2.3252 C   0  0  0  0  0  0  0  0  0  0  0  0
   47.7392   -1.8754   -1.7162 C   0  0  0  0  0  0  0  0  0  0  0  0
   48.4156   -0.9505   -0.8586 C   0  0  0  0  0  0  0  0  0  0  0  0
   49.7650   -1.1038   -0.9442 N   0  0  0  0  0  0  0  0  0  0  0  0
   46.6854    1.8702    1.7661 H   0  0  0  0  0  0  0  0  0  0  0  0
   48.6167    3.3345    2.9715 H   0  0  0  0  0  0  0  0  0  0  0  0
   51.2000    3.4120    2.8085 H   0  0  0  0  0  0  0  0  0  0  0  0
   53.7823    3.5465    2.6828 H   0  0  0  0  0  0  0  0  0  0  0  0
   55.7004    2.0717    1.4693 H   0  0  0  0  0  0  0  0  0  0  0  0
   55.6817   -2.2189   -1.5286 H   0  0  0  0  0  0  0  0  0  0  0  0
   53.7506   -3.6679   -2.7536 H   0  0  0  0  0  0  0  0  0  0  0  0
   51.1707   -3.5076   -2.8827 H   0  0  0  0  0  0  0  0  0  0  0  0
   48.5866   -3.4125   -3.0395 H   0  0  0  0  0  0  0  0  0  0  0  0
   46.6683   -1.9402   -1.8235 H   0  0  0  0  0  0  0  0  0  0  0  0
  2  3  4  0  0  0  0
  3  4  1  0  0  0  0
  4  5  2  0  0  0  0
  5  6  4  0  0  0  0
  1  7  1  0  0  0  0
  3  7  4  0  0  0  0
  6  7  4  0  0  0  0
  6  8  4  0  0  0  0
  8  9  4  0  0  0  0
  9 10  4  0  0  0  0
 10 11  2  0  0  0  0
  1 12  1  0  0  0  0
  9 12  4  0  0  0  0
 11 13  4  0  0  0  0
 12 13  4  0  0  0  0
 13 14  4  0  0  0  0
 14 15  4  0  0  0  0
 15 16  4  0  0  0  0
 16 17  2  0  0  0  0
 17 18  4  0  0  0  0
  1 19  1  0  0  0  0
 15 19  4  0  0  0  0
 18 19  4  0  0  0  0
 18 20  4  0  0  0  0
 20 21  4  0  0  0  0
 21 22  4  0  0  0  0
 22 23  2  0  0  0  0
  2 24  4  0  0  0  0
 23 24  1  0  0  0  0
  1 25  1  0  0  0  0
 21 25  4  0  0  0  0
 24 25  4  0  0  0  0
  2 26  1  0  0  0  0
  4 27  1  0  0  0  0
  5 28  1  0  0  0  0
  8 29  1  0  0  0  0
 10 30  1  0  0  0  0
 11 31  1  0  0  0  0
 16 32  1  0  0  0  0
 17 33  1  0  0  0  0
 20 34  1  0  0  0  0
 22 35  1  0  0  0  0
 23 36  1  0  0  0  0
 38 39  4  0  0  0  0
 39 40  1  0  0  0  0
 40 41  2  0  0  0  0
 41 42  4  0  0  0  0
 37 43  1  0  0  0  0
 39 43  4  0  0  0  0
 42 43  4  0  0  0  0
 42 44  4  0  0  0  0
 44 45  4  0  0  0  0
 45 46  4  0  0  0  0
 46 47  2  0  0  0  0
 37 48  1  0  0  0  0
 45 48  4  0  0  0  0
 47 49  4  0  0  0  0
 48 49  4  0  0  0  0
 49 50  4  0  0  0  0
 50 51  4  0  0  0  0
 51 52  4  0  0  0  0
 52 53  2  0  0  0  0
 53 54  4  0  0  0  0
 37 55  1  0  0  0  0
 51 55  4  0  0  0  0
 54 55  4  0  0  0  0
 54 56  4  0  0  0  0
 56 57  4  0  0  0  0
 57 58  4  0  0  0  0
 58 59  2  0  0  0  0
 38 60  4  0  0  0  0
 59 60  1  0  0  0  0
 37 61  1  0  0  0  0
 57 61  4  0  0  0  0
 60 61  4  0  0  0  0
 38 62  1  0  0  0  0
 40 63  1  0  0  0  0
 41 64  1  0  0  0  0
 44 65  1  0  0  0  0
 46 66  1  0  0  0  0
 47 67  1  0  0  0  0
 52 68  1  0  0  0  0
 53 69  1  0  0  0  0
 56 70  1  0  0  0  0
 58 71  1  0  0  0  0
 59 72  1  0  0  0  0
 14 74  4  0  0  0  0
 73 74  3  0  0  0  0
 73 75  4  0  0  0  0
 75 76  3  0  0  0  0
 77 78  3  0  0  0  0
 77 79  4  0  0  0  0
 79 80  3  0  0  0  0
 81 82  3  0  0  0  0
 81 83  4  0  0  0  0
 50 84  4  0  0  0  0
 83 84  3  0  0  0  0
 76 86  4  0  0  0  0
 86 87  4  0  0  0  0
 87 88  4  0  0  0  0
 88 89  2  0  0  0  0
 89 90  4  0  0  0  0
 85 91  1  0  0  0  0
 87 91  4  0  0  0  0
 90 91  4  0  0  0  0
 90 92  4  0  0  0  0
 92 93  4  0  0  0  0
 93 94  4  0  0  0  0
 94 95  2  0  0  0  0
 85 96  1  0  0  0  0
 93 96  4  0  0  0  0
 95 97  4  0  0  0  0
 96 97  4  0  0  0  0
 78 98  4  0  0  0  0
 97 98  4  0  0  0  0
 98 99  4  0  0  0  0
 99100  4  0  0  0  0
100101  2  0  0  0  0
101102  4  0  0  0  0
 85103  1  0  0  0  0
 99103  4  0  0  0  0
102103  4  0  0  0  0
102104  4  0  0  0  0
104105  4  0  0  0  0
105106  4  0  0  0  0
106107  2  0  0  0  0
 86108  4  0  0  0  0
107108  4  0  0  0  0
 85109  1  0  0  0  0
105109  4  0  0  0  0
108109  4  0  0  0  0
 88110  1  0  0  0  0
 89111  1  0  0  0  0
 92112  1  0  0  0  0
 94113  1  0  0  0  0
 95114  1  0  0  0  0
100115  1  0  0  0  0
101116  1  0  0  0  0
104117  1  0  0  0  0
106118  1  0  0  0  0
107119  1  0  0  0  0
 80121  4  0  0  0  0
121122  4  0  0  0  0
122123  4  0  0  0  0
123124  2  0  0  0  0
124125  4  0  0  0  0
120126  1  0  0  0  0
122126  4  0  0  0  0
125126  4  0  0  0  0
125127  4  0  0  0  0
127128  4  0  0  0  0
128129  4  0  0  0  0
129130  2  0  0  0  0
120131  1  0  0  0  0
128131  4  0  0  0  0
130132  4  0  0  0  0
131132  4  0  0  0  0
 82133  4  0  0  0  0
132133  4  0  0  0  0
133134  4  0  0  0  0
134135  4  0  0  0  0
135136  2  0  0  0  0
136137  4  0  0  0  0
120138  1  0  0  0  0
134138  4  0  0  0  0
137138  4  0  0  0  0
137139  4  0  0  0  0
139140  4  0  0  0  0
140141  4  0  0  0  0
141142  2  0  0  0  0
121143  4  0  0  0  0
142143  4  0  0  0  0
120144  1  0  0  0  0
140144  4  0  0  0  0
143144  4  0  0  0  0
123145  1  0  0  0  0
124146  1  0  0  0  0
127147  1  0  0  0  0
129148  1  0  0  0  0
130149  1  0  0  0  0
135150  1  0  0  0  0
136151  1  0  0  0  0
139152  1  0  0  0  0
141153  1  0  0  0  0
142154  1  0  0  0  0
M  END
