132

C 13.944937 0.007488 0.072333
C 14.674201 -1.359025 -0.108722
C 14.071041 -2.595884 -0.135516
C 15.093218 -3.551055 -0.372954
C 16.285846 -2.863309 -0.490369
N 16.024708 -1.533395 -0.274308
C 17.705180 -3.478990 -0.836384
C 17.736883 -4.867543 -1.348113
C 17.532094 -5.119092 -2.711468
C 17.523435 -6.428745 -3.192243
C 17.719029 -7.484383 -2.297428
S 17.614074 -9.156905 -2.862494
O 17.026877 -9.160358 -4.187318
O 16.482452 -9.808128 -1.908449
O 18.870215 -9.817041 -2.583090
C 17.934855 -7.248445 -0.936050
C 17.945748 -5.936029 -0.465275
C 18.836489 -2.736610 -0.704801
C 20.138026 -3.252688 -1.076114
C 21.041378 -2.302520 -0.864813
N 19.035255 -1.457133 -0.259297
C 20.365888 -1.136619 -0.330410
C 21.034492 0.000000 0.000000
C 20.257537 1.235749 0.620820
C 20.792736 2.203248 1.448246
C 19.767465 3.140956 1.727271
C 18.633409 2.715106 1.068794
N 18.926441 1.525647 0.444831
C 17.227193 3.448293 1.050315
C 17.208293 4.905161 1.301611
C 17.585871 5.793740 0.286501
C 17.621270 7.166315 0.531048
C 17.273672 7.644096 1.798789
S 17.437827 9.372443 2.137468
O 16.377010 10.075656 1.452117
O 18.840498 9.771987 1.438526
O 17.672328 9.535368 3.557867
C 16.885667 6.771403 2.819086
C 16.852735 5.400263 2.564479
C 16.099634 2.738610 0.790204
C 14.780798 3.344126 0.741473
C 13.892900 2.389338 0.479698
C 14.610696 1.145759 0.342602
N 15.931741 1.408360 0.527054
H 12.867733 0.028468 -0.041792
H 13.015875 -2.786340 -0.013055
H 14.967661 -4.618576 -0.470071
H 16.723061 -0.794583 -0.239026
H 17.375066 -4.278532 -3.385257
H 17.354478 -6.606111 -4.250526
H 15.607262 -9.579416 -2.283184
H 18.090835 -8.069769 -0.242098
H 18.110866 -5.724831 0.589928
H 20.348875 -4.231674 -1.467941
H 22.093810 -2.406484 -1.056263
H 21.810936 2.237415 1.805876
H 19.849062 4.027447 2.337549
H 18.245618 0.928403 -0.017507
H 17.858082 5.396699 -0.690058
H 17.922679 7.843342 -0.263552
H 19.566149 9.453186 2.013846
H 16.622060 7.137433 3.807453
H 16.560651 4.697716 3.343476
H 14.553901 4.384638 0.887939
H 12.830332 2.516351 0.378744
C 31.783561 -0.044815 0.057269
C 31.054298 1.208661 0.630800
C 31.657458 2.270293 1.265997
C 30.635281 3.205432 1.572989
C 29.442653 2.685497 1.107748
N 29.703791 1.444394 0.583328
C 28.023318 3.390905 1.142221
C 27.991615 4.838931 1.447458
C 28.196405 5.777114 0.426759
C 28.205064 7.141861 0.716241
C 28.009470 7.559829 2.035471
S 28.114425 9.276692 2.446584
O 28.701622 9.984290 1.326552
O 29.246046 9.320694 3.600862
O 26.858283 9.687084 3.034312
C 27.793644 6.635918 3.062799
C 27.782750 5.274150 2.763380
C 26.892009 2.692264 0.858774
C 25.590473 3.326784 0.818847
C 24.687121 2.409784 0.492383
N 26.693243 1.371831 0.555475
C 25.362611 1.138242 0.324775
C 24.694007 -0.000000 -0.000000
C 25.470961 -1.376655 -0.131582
C 24.935763 -2.636048 0.054476
C 25.961034 -3.578519 -0.208012
C 27.095089 -2.867662 -0.539104
N 26.802057 -1.528534 -0.434807
C 28.501306 -3.478701 -0.944735
C 28.520206 -4.846052 -1.506845
C 28.142628 -5.058569 -2.839083
C 28.107229 -6.350949 -3.362072
C 28.454827 -7.429849 -2.542673
S 28.290672 -9.073569 -3.175186
O 29.351489 -9.304516 -4.129585
O 26.888001 -9.040138 -3.979573
O 28.056171 -9.967046 -2.059043
C 28.842832 -7.233543 -1.214493
C 28.875764 -5.937028 -0.700785
C 29.628865 -2.739383 -0.787518
C 30.947700 -3.226219 -1.150858
C 31.835599 -2.278459 -0.864679
C 31.117803 -1.152467 -0.319312
N 29.796757 -1.472949 -0.302795
H 32.860766 -0.001878 -0.050532
H 32.712623 2.366435 1.471000
H 30.760838 4.161073 2.058564
H 29.005438 0.799997 0.220230
H 28.353433 5.423710 -0.590905
H 28.374020 7.854957 -0.085580
H 30.121237 9.326341 3.161881
H 27.637664 6.962307 4.087305
H 27.617633 4.534042 3.544596
H 25.379624 4.364209 1.007768
H 23.634689 2.599654 0.385559
H 23.917563 -2.855205 0.339145
H 25.879437 -4.653813 -0.162750
H 27.482881 -0.776866 -0.508643
H 27.870417 -4.202919 -3.454854
H 27.805820 -6.501611 -4.395056
H 26.162350 -9.076188 -3.322817
H 29.106439 -8.069214 -0.572228
H 29.167848 -5.756455 0.332560
H 31.174597 -4.185237 -1.580279
H 32.898167 -2.332318 -1.017725
C 22.253291 0.000000 0.000000
C 23.475208 0.000000 0.000000
