 xtb: 6.5.1 (b24c23e)
          07312216313D

132145  0     0  0            999 V2000
   14.0335   -0.0618    0.0982 C   0  0  0  0  0  0  0  0  0  0  0  0
   14.6369   -1.2632   -0.2488 C   0  0  0  0  0  0  0  0  0  0  0  0
   13.9863   -2.5019   -0.5098 C   0  0  0  0  0  0  0  0  0  0  0  0
   14.9432   -3.4177   -0.8444 C   0  0  0  0  0  0  0  0  0  0  0  0
   16.2088   -2.7639   -0.8113 C   0  0  0  0  0  0  0  0  0  0  0  0
   15.9748   -1.4737   -0.4304 N   0  0  0  0  0  0  0  0  0  0  0  0
   17.4640   -3.3054   -1.1092 C   0  0  0  0  0  0  0  0  0  0  0  0
   17.4928   -4.7210   -1.5472 C   0  0  0  0  0  0  0  0  0  0  0  0
   16.7920   -5.1292   -2.6851 C   0  0  0  0  0  0  0  0  0  0  0  0
   16.8186   -6.4534   -3.0909 C   0  0  0  0  0  0  0  0  0  0  0  0
   17.5489   -7.3636   -2.3441 C   0  0  0  0  0  0  0  0  0  0  0  0
   17.5949   -9.0397   -2.8553 S   0  0  0  0  0  0  0  0  0  0  0  0
   17.2866   -9.1590   -4.2501 O   0  0  0  0  0  0  0  0  0  0  0  0
   16.3167   -9.5790   -2.0104 O   0  0  0  0  0  0  0  0  0  0  0  0
   18.7715   -9.6887   -2.3567 O   0  0  0  0  0  0  0  0  0  0  0  0
   18.2571   -6.9893   -1.2135 C   0  0  0  0  0  0  0  0  0  0  0  0
   18.2261   -5.6623   -0.8191 C   0  0  0  0  0  0  0  0  0  0  0  0
   18.6799   -2.6204   -1.0219 C   0  0  0  0  0  0  0  0  0  0  0  0
   19.9511   -3.1770   -1.4482 C   0  0  0  0  0  0  0  0  0  0  0  0
   20.8842   -2.2390   -1.1847 C   0  0  0  0  0  0  0  0  0  0  0  0
   18.8590   -1.3602   -0.5414 N   0  0  0  0  0  0  0  0  0  0  0  0
   20.1845   -1.1126   -0.6004 C   0  0  0  0  0  0  0  0  0  0  0  0
   20.8453    0.0440   -0.1385 C   0  0  0  0  0  0  0  0  0  0  0  0
   20.2172    1.2066    0.3483 C   0  0  0  0  0  0  0  0  0  0  0  0
   20.8604    2.3658    0.8551 C   0  0  0  0  0  0  0  0  0  0  0  0
   19.8969    3.2848    1.1654 C   0  0  0  0  0  0  0  0  0  0  0  0
   18.6318    2.7125    0.8581 C   0  0  0  0  0  0  0  0  0  0  0  0
   18.8756    1.4514    0.3839 N   0  0  0  0  0  0  0  0  0  0  0  0
   17.3738    3.3035    1.0241 C   0  0  0  0  0  0  0  0  0  0  0  0
   17.3591    4.7161    1.4724 C   0  0  0  0  0  0  0  0  0  0  0  0
   17.9698    5.7052    0.6963 C   0  0  0  0  0  0  0  0  0  0  0  0
   17.9523    7.0292    1.1020 C   0  0  0  0  0  0  0  0  0  0  0  0
   17.3237    7.3515    2.2940 C   0  0  0  0  0  0  0  0  0  0  0  0
   17.2876    9.0282    2.8084 S   0  0  0  0  0  0  0  0  0  0  0  0
   17.4515    9.9137    1.6922 O   0  0  0  0  0  0  0  0  0  0  0  0
   18.6715    9.0608    3.6563 O   0  0  0  0  0  0  0  0  0  0  0  0
   16.1925    9.2453    3.7043 O   0  0  0  0  0  0  0  0  0  0  0  0
   16.7111    6.3939    3.0858 C   0  0  0  0  0  0  0  0  0  0  0  0
   16.7308    5.0733    2.6683 C   0  0  0  0  0  0  0  0  0  0  0  0
   16.1487    2.6654    0.8057 C   0  0  0  0  0  0  0  0  0  0  0  0
   14.8509    3.3099    0.9425 C   0  0  0  0  0  0  0  0  0  0  0  0
   13.9260    2.3623    0.6910 C   0  0  0  0  0  0  0  0  0  0  0  0
   14.6573    1.1449    0.3855 C   0  0  0  0  0  0  0  0  0  0  0  0
   15.9928    1.3691    0.4480 N   0  0  0  0  0  0  0  0  0  0  0  0
   12.9495   -0.0765    0.1466 H   0  0  0  0  0  0  0  0  0  0  0  0
   12.9219   -2.6600   -0.4412 H   0  0  0  0  0  0  0  0  0  0  0  0
   14.7919   -4.4573   -1.0855 H   0  0  0  0  0  0  0  0  0  0  0  0
   16.6969   -0.7727   -0.3030 H   0  0  0  0  0  0  0  0  0  0  0  0
   16.2402   -4.3992   -3.2659 H   0  0  0  0  0  0  0  0  0  0  0  0
   16.2881   -6.7777   -3.9773 H   0  0  0  0  0  0  0  0  0  0  0  0
   16.1376  -10.5019   -2.2279 H   0  0  0  0  0  0  0  0  0  0  0  0
   18.8228   -7.7258   -0.6569 H   0  0  0  0  0  0  0  0  0  0  0  0
   18.7633   -5.3507    0.0690 H   0  0  0  0  0  0  0  0  0  0  0  0
   20.0876   -4.1432   -1.9060 H   0  0  0  0  0  0  0  0  0  0  0  0
   21.9434   -2.2760   -1.3787 H   0  0  0  0  0  0  0  0  0  0  0  0
   21.9252    2.4734    0.9761 H   0  0  0  0  0  0  0  0  0  0  0  0
   20.0459    4.2664    1.5847 H   0  0  0  0  0  0  0  0  0  0  0  0
   18.1539    0.7949    0.1053 H   0  0  0  0  0  0  0  0  0  0  0  0
   18.4431    5.4347   -0.2405 H   0  0  0  0  0  0  0  0  0  0  0  0
   18.4108    7.8046    0.5011 H   0  0  0  0  0  0  0  0  0  0  0  0
   19.0173    9.9610    3.6951 H   0  0  0  0  0  0  0  0  0  0  0  0
   16.2257    6.6814    4.0099 H   0  0  0  0  0  0  0  0  0  0  0  0
   16.2681    4.3075    3.2797 H   0  0  0  0  0  0  0  0  0  0  0  0
   14.6940    4.3484    1.1855 H   0  0  0  0  0  0  0  0  0  0  0  0
   12.8510    2.4497    0.6946 H   0  0  0  0  0  0  0  0  0  0  0  0
   31.6950   -0.0000    0.1155 C   0  0  0  0  0  0  0  0  0  0  0  0
   31.0917    1.2019    0.4612 C   0  0  0  0  0  0  0  0  0  0  0  0
   31.7424    2.3895    0.8993 C   0  0  0  0  0  0  0  0  0  0  0  0
   30.7855    3.3428    1.1035 C   0  0  0  0  0  0  0  0  0  0  0  0
   29.5199    2.7718    0.7837 C   0  0  0  0  0  0  0  0  0  0  0  0
   29.7538    1.4767    0.4196 N   0  0  0  0  0  0  0  0  0  0  0  0
   28.2646    3.3888    0.8194 C   0  0  0  0  0  0  0  0  0  0  0  0
   28.2360    4.8206    1.2013 C   0  0  0  0  0  0  0  0  0  0  0  0
   28.9374    5.7712    0.4549 C   0  0  0  0  0  0  0  0  0  0  0  0
   28.9109    7.1084    0.8154 C   0  0  0  0  0  0  0  0  0  0  0  0
   28.1801    7.4824    1.9314 C   0  0  0  0  0  0  0  0  0  0  0  0
   28.1342    9.1738    2.3898 S   0  0  0  0  0  0  0  0  0  0  0  0
   28.4429   10.0165    1.2720 O   0  0  0  0  0  0  0  0  0  0  0  0
   29.4122    9.1810    3.3924 O   0  0  0  0  0  0  0  0  0  0  0  0
   26.9575    9.4584    3.1568 O   0  0  0  0  0  0  0  0  0  0  0  0
   27.4714    6.5644    2.6896 C   0  0  0  0  0  0  0  0  0  0  0  0
   27.5023    5.2308    2.3181 C   0  0  0  0  0  0  0  0  0  0  0  0
   27.0487    2.7625    0.5290 C   0  0  0  0  0  0  0  0  0  0  0  0
   25.7776    3.4606    0.4638 C   0  0  0  0  0  0  0  0  0  0  0  0
   24.8444    2.5262    0.1882 C   0  0  0  0  0  0  0  0  0  0  0  0
   26.8695    1.4397    0.2658 N   0  0  0  0  0  0  0  0  0  0  0  0
   25.5440    1.2615    0.0841 C   0  0  0  0  0  0  0  0  0  0  0  0
   24.8830    0.0365   -0.1401 C   0  0  0  0  0  0  0  0  0  0  0  0
   25.5110   -1.2070   -0.3462 C   0  0  0  0  0  0  0  0  0  0  0  0
   24.8677   -2.4581   -0.5341 C   0  0  0  0  0  0  0  0  0  0  0  0
   25.8312   -3.4014   -0.7602 C   0  0  0  0  0  0  0  0  0  0  0  0
   27.0964   -2.7534   -0.7157 C   0  0  0  0  0  0  0  0  0  0  0  0
   26.8526   -1.4333   -0.4461 N   0  0  0  0  0  0  0  0  0  0  0  0
   28.3543   -3.3421   -0.8896 C   0  0  0  0  0  0  0  0  0  0  0  0
   28.3690   -4.7768   -1.2616 C   0  0  0  0  0  0  0  0  0  0  0  0
   27.7583   -5.2013   -2.4449 C   0  0  0  0  0  0  0  0  0  0  0  0
   27.7758   -6.5383   -2.8058 C   0  0  0  0  0  0  0  0  0  0  0  0
   28.4045   -7.4453   -1.9681 C   0  0  0  0  0  0  0  0  0  0  0  0
   28.4403   -9.1388   -2.4243 S   0  0  0  0  0  0  0  0  0  0  0  0
   28.2742   -9.2950   -3.8402 O   0  0  0  0  0  0  0  0  0  0  0  0
   27.0576   -9.6177   -1.7216 O   0  0  0  0  0  0  0  0  0  0  0  0
   29.5365   -9.7988   -1.7825 O   0  0  0  0  0  0  0  0  0  0  0  0
   29.0173   -7.0557   -0.7883 C   0  0  0  0  0  0  0  0  0  0  0  0
   28.9975   -5.7154   -0.4391 C   0  0  0  0  0  0  0  0  0  0  0  0
   29.5795   -2.6856   -0.7353 C   0  0  0  0  0  0  0  0  0  0  0  0
   30.8771   -3.3041   -0.9628 C   0  0  0  0  0  0  0  0  0  0  0  0
   31.8021   -2.3680   -0.6722 C   0  0  0  0  0  0  0  0  0  0  0  0
   31.0710   -1.1747   -0.2829 C   0  0  0  0  0  0  0  0  0  0  0  0
   29.7354   -1.3976   -0.3488 N   0  0  0  0  0  0  0  0  0  0  0  0
   32.7790   -0.0134    0.1639 H   0  0  0  0  0  0  0  0  0  0  0  0
   32.8068    2.4868    1.0415 H   0  0  0  0  0  0  0  0  0  0  0  0
   30.9368    4.3513    1.4527 H   0  0  0  0  0  0  0  0  0  0  0  0
   29.0317    0.8154    0.1544 H   0  0  0  0  0  0  0  0  0  0  0  0
   29.4896    5.4617   -0.4248 H   0  0  0  0  0  0  0  0  0  0  0  0
   29.4419    7.8544    0.2375 H   0  0  0  0  0  0  0  0  0  0  0  0
   29.5913   10.0783    3.6990 H   0  0  0  0  0  0  0  0  0  0  0  0
   26.9053    6.8923    3.5523 H   0  0  0  0  0  0  0  0  0  0  0  0
   26.9646    4.4948    2.9043 H   0  0  0  0  0  0  0  0  0  0  0  0
   25.6412    4.5224    0.5898 H   0  0  0  0  0  0  0  0  0  0  0  0
   23.7853    2.6607    0.0436 H   0  0  0  0  0  0  0  0  0  0  0  0
   23.8029   -2.6135   -0.4893 H   0  0  0  0  0  0  0  0  0  0  0  0
   25.6820   -4.4555   -0.9278 H   0  0  0  0  0  0  0  0  0  0  0  0
   27.5743   -0.7294   -0.3323 H   0  0  0  0  0  0  0  0  0  0  0  0
   27.2849   -4.4739   -3.0942 H   0  0  0  0  0  0  0  0  0  0  0  0
   27.3173   -6.8751   -3.7271 H   0  0  0  0  0  0  0  0  0  0  0  0
   26.7125  -10.4012   -2.1670 H   0  0  0  0  0  0  0  0  0  0  0  0
   29.5028   -7.7907   -0.1588 H   0  0  0  0  0  0  0  0  0  0  0  0
   29.4604   -5.3922    0.4859 H   0  0  0  0  0  0  0  0  0  0  0  0
   31.0339   -4.3128   -1.3096 H   0  0  0  0  0  0  0  0  0  0  0  0
   32.8771   -2.4439   -0.7160 H   0  0  0  0  0  0  0  0  0  0  0  0
   22.2553    0.0468   -0.1554 C   0  0  0  0  0  0  0  0  0  0  0  0
   23.4731    0.0433   -0.1561 C   0  0  0  0  0  0  0  0  0  0  0  0
  1  2  4  0  0  0  0
  2  3  4  0  0  0  0
  3  4  2  0  0  0  0
  4  5  4  0  0  0  0
  2  6  4  0  0  0  0
  5  6  4  0  0  0  0
  5  7  4  0  0  0  0
  7  8  1  0  0  0  0
  8  9  4  0  0  0  0
  9 10  4  0  0  0  0
 10 11  4  0  0  0  0
 11 12  1  0  0  0  0
 12 13  2  0  0  0  0
 12 14  1  0  0  0  0
 12 15  2  0  0  0  0
 11 16  4  0  0  0  0
  8 17  4  0  0  0  0
 16 17  4  0  0  0  0
  7 18  4  0  0  0  0
 18 19  1  0  0  0  0
 19 20  2  0  0  0  0
 18 21  4  0  0  0  0
 20 22  1  0  0  0  0
 21 22  4  0  0  0  0
 22 23  4  0  0  0  0
 23 24  4  0  0  0  0
 24 25  4  0  0  0  0
 25 26  2  0  0  0  0
 26 27  4  0  0  0  0
 24 28  4  0  0  0  0
 27 28  4  0  0  0  0
 27 29  4  0  0  0  0
 29 30  1  0  0  0  0
 30 31  4  0  0  0  0
 31 32  4  0  0  0  0
 32 33  4  0  0  0  0
 33 34  1  0  0  0  0
 34 35  2  0  0  0  0
 34 36  1  0  0  0  0
 34 37  2  0  0  0  0
 33 38  4  0  0  0  0
 30 39  4  0  0  0  0
 38 39  4  0  0  0  0
 29 40  4  0  0  0  0
 40 41  1  0  0  0  0
 41 42  2  0  0  0  0
  1 43  4  0  0  0  0
 42 43  1  0  0  0  0
 40 44  4  0  0  0  0
 43 44  4  0  0  0  0
  1 45  1  0  0  0  0
  3 46  1  0  0  0  0
  4 47  1  0  0  0  0
  6 48  1  0  0  0  0
  9 49  1  0  0  0  0
 10 50  1  0  0  0  0
 14 51  1  0  0  0  0
 16 52  1  0  0  0  0
 17 53  1  0  0  0  0
 19 54  1  0  0  0  0
 20 55  1  0  0  0  0
 25 56  1  0  0  0  0
 26 57  1  0  0  0  0
 28 58  1  0  0  0  0
 31 59  1  0  0  0  0
 32 60  1  0  0  0  0
 36 61  1  0  0  0  0
 38 62  1  0  0  0  0
 39 63  1  0  0  0  0
 41 64  1  0  0  0  0
 42 65  1  0  0  0  0
 66 67  4  0  0  0  0
 67 68  4  0  0  0  0
 68 69  2  0  0  0  0
 69 70  4  0  0  0  0
 67 71  4  0  0  0  0
 70 71  4  0  0  0  0
 70 72  4  0  0  0  0
 72 73  1  0  0  0  0
 73 74  4  0  0  0  0
 74 75  4  0  0  0  0
 75 76  4  0  0  0  0
 76 77  1  0  0  0  0
 77 78  2  0  0  0  0
 77 79  1  0  0  0  0
 77 80  2  0  0  0  0
 76 81  4  0  0  0  0
 73 82  4  0  0  0  0
 81 82  4  0  0  0  0
 72 83  4  0  0  0  0
 83 84  1  0  0  0  0
 84 85  2  0  0  0  0
 83 86  4  0  0  0  0
 85 87  1  0  0  0  0
 86 87  4  0  0  0  0
 87 88  4  0  0  0  0
 88 89  4  0  0  0  0
 89 90  4  0  0  0  0
 90 91  2  0  0  0  0
 91 92  4  0  0  0  0
 89 93  4  0  0  0  0
 92 93  4  0  0  0  0
 92 94  4  0  0  0  0
 94 95  1  0  0  0  0
 95 96  4  0  0  0  0
 96 97  4  0  0  0  0
 97 98  4  0  0  0  0
 98 99  1  0  0  0  0
 99100  2  0  0  0  0
 99101  1  0  0  0  0
 99102  2  0  0  0  0
 98103  4  0  0  0  0
 95104  4  0  0  0  0
103104  4  0  0  0  0
 94105  4  0  0  0  0
105106  1  0  0  0  0
106107  2  0  0  0  0
 66108  4  0  0  0  0
107108  1  0  0  0  0
105109  4  0  0  0  0
108109  4  0  0  0  0
 66110  1  0  0  0  0
 68111  1  0  0  0  0
 69112  1  0  0  0  0
 71113  1  0  0  0  0
 74114  1  0  0  0  0
 75115  1  0  0  0  0
 79116  1  0  0  0  0
 81117  1  0  0  0  0
 82118  1  0  0  0  0
 84119  1  0  0  0  0
 85120  1  0  0  0  0
 90121  1  0  0  0  0
 91122  1  0  0  0  0
 93123  1  0  0  0  0
 96124  1  0  0  0  0
 97125  1  0  0  0  0
101126  1  0  0  0  0
103127  1  0  0  0  0
104128  1  0  0  0  0
106129  1  0  0  0  0
107130  1  0  0  0  0
 23131  4  0  0  0  0
 88132  4  0  0  0  0
131132  3  0  0  0  0
M  END
