430

C 72.448241 -0.007230 -0.058138
C 73.176734 -1.265407 0.506466
C 72.568124 -2.429927 0.916180
C 73.589913 -3.281189 1.411027
C 74.787982 -2.603794 1.293175
N 74.529375 -1.396665 0.693487
C 76.210471 -3.105908 1.782707
C 77.340302 -2.430681 1.437864
C 78.644940 -2.826920 1.927055
C 79.547306 -1.976661 1.451753
N 77.536579 -1.324417 0.653397
C 78.868131 -0.999626 0.623406
C 79.535776 0.002880 -0.007689
C 78.758126 1.035754 -0.928383
C 79.298517 1.771141 -1.965349
C 78.273725 2.604775 -2.478199
C 77.133479 2.347419 -1.747523
C 75.724180 3.053135 -1.930936
C 75.696934 4.391450 -2.563813
C 75.324258 4.536629 -3.906112
C 75.313314 5.798639 -4.503049
C 75.678071 6.923079 -3.761516
C 76.053455 6.786395 -2.424317
C 76.063736 5.523962 -1.827843
C 74.598552 2.431842 -1.491716
C 73.276673 3.020596 -1.614796
C 72.390857 2.168478 -1.107372
C 73.112480 1.013707 -0.631368
N 74.433572 1.221520 -0.877419
N 77.424144 1.353451 -0.842891
C 76.247936 -4.297739 2.663556
C 75.995579 -4.169270 4.034493
C 76.020144 -5.292184 4.863730
C 76.296201 -6.550173 4.326067
C 76.547962 -6.686490 2.960160
C 76.522979 -5.563433 2.131206
H 71.370406 0.041138 0.039988
H 71.509760 -2.636675 0.879111
H 73.462725 -4.267964 1.830179
H 75.230589 -0.707273 0.433708
H 78.856016 -3.658380 2.575658
H 80.600841 -2.026969 1.657114
H 80.320432 1.725210 -2.309579
H 78.358237 3.316483 -3.285596
H 75.040024 3.652782 -4.473295
H 75.019028 5.896753 -5.542945
H 75.669279 7.904642 -4.224473
H 76.338487 7.656002 -1.840883
H 76.354762 5.406659 -0.786201
H 73.048825 3.981175 -2.040522
H 71.327353 2.312802 -1.049576
H 76.740847 0.892050 -0.247945
H 75.783259 -3.183487 4.442702
H 75.824898 -5.177895 5.925134
H 76.316859 -7.422740 4.971143
H 76.765763 -7.661009 2.535202
H 76.720925 -5.656303 1.065532
C 179.931767 -0.038427 -0.038367
C 179.203274 1.009257 -0.935111
C 179.811884 1.876890 -1.813281
C 178.790095 2.687781 -2.371830
C 177.592026 2.292030 -1.809572
N 177.850633 1.234413 -0.973968
C 176.169537 2.949064 -2.054654
C 175.039706 2.348972 -1.591258
C 173.735067 2.960500 -1.740744
C 172.832702 2.167712 -1.174759
N 174.843429 1.167317 -0.925749
C 173.511877 1.001544 -0.644843
C 172.844232 0.002880 -0.007689
C 173.621882 -1.270636 0.533300
C 173.081491 -2.522298 0.755634
C 174.106283 -3.341944 1.290556
C 175.246529 -2.571329 1.369751
C 176.655828 -3.038457 1.929632
C 176.683074 -4.182090 2.869699
C 177.055750 -5.457907 2.427962
C 177.066694 -6.536465 3.314369
C 176.701936 -6.345916 4.647758
C 176.326553 -5.078336 5.094999
C 176.316272 -4.000016 4.208013
C 177.781456 -2.376042 1.555298
C 179.103335 -2.738680 2.035166
C 179.989151 -1.916050 1.481213
C 179.267528 -0.992633 0.640157
N 177.946436 -1.303851 0.723044
N 174.955864 -1.328948 0.857089
C 176.132072 4.254405 -2.756397
C 176.384429 5.439302 -2.054975
C 176.359864 6.668549 -2.716429
C 176.083807 6.719371 -4.083555
C 175.832046 5.542373 -4.789927
C 175.857029 4.313321 -4.128223
H 181.009602 0.029661 0.047262
H 180.870248 1.931629 -2.016068
H 178.917282 3.488072 -3.085237
H 177.149419 0.705197 -0.461450
H 173.523992 3.901979 -2.215747
H 171.779167 2.374897 -1.132584
H 172.059576 -2.813978 0.567148
H 174.021771 -4.375899 1.589479
H 177.339984 -5.593501 1.386570
H 177.360979 -7.518728 2.959165
H 176.710729 -7.183593 5.337752
H 176.041521 -4.921968 6.130452
H 176.025246 -3.007982 4.546609
H 179.331183 -3.533732 2.722078
H 181.052655 -1.925396 1.636398
H 175.639161 -0.593968 0.693824
H 176.596749 5.387618 -0.989268
H 176.555110 7.579588 -2.159967
H 176.063148 7.675208 -4.597237
H 175.614245 5.574102 -5.852598
H 175.659083 3.389277 -4.667137
C 86.053220 0.003750 0.000865
C 84.844281 -0.009705 -0.007582
C 83.422752 -0.000886 -0.019565
C 82.211083 0.006553 -0.008702
C 87.469825 -0.002925 0.001399
C 88.690521 0.006553 -0.008702
C 102.349438 0.003750 0.000865
C 101.140498 -0.009705 -0.007582
C 99.718969 -0.000886 -0.019565
C 98.507300 0.006553 -0.008702
C 103.766042 -0.002925 0.001399
C 104.986738 0.006553 -0.008702
C 118.645655 0.003750 0.000865
C 117.436715 -0.009705 -0.007582
C 116.015186 -0.000886 -0.019565
C 114.803517 0.006553 -0.008702
C 120.062259 -0.002925 0.001399
C 121.282955 0.006553 -0.008702
C 134.941872 0.003750 0.000865
C 133.732932 -0.009705 -0.007582
C 132.311403 -0.000886 -0.019565
C 131.099734 0.006553 -0.008702
C 136.358476 -0.002925 0.001399
C 137.579172 0.006553 -0.008702
C 151.238089 0.003750 0.000865
C 150.029149 -0.009705 -0.007582
C 148.607620 -0.000886 -0.019565
C 147.395951 0.006553 -0.008702
C 152.654693 -0.002925 0.001399
C 153.875389 0.006553 -0.008702
C 167.534306 0.003750 0.000865
C 166.325366 -0.009705 -0.007582
C 164.903837 -0.000886 -0.019565
C 163.692168 0.006553 -0.008702
C 168.950910 -0.002925 0.001399
C 170.171606 0.006553 -0.008702
C 90.020609 -0.002015 0.004249
C 90.814261 1.107808 0.810209
C 90.307535 1.932550 1.794102
C 91.344434 2.821249 2.177342
C 92.453875 2.506447 1.421098
N 92.142924 1.415672 0.648298
C 93.843501 3.266560 1.429742
C 94.978309 2.612718 1.066089
C 96.265240 3.274034 1.000151
C 97.173202 2.385747 0.610472
N 95.186340 1.314064 0.691161
C 96.510848 1.112812 0.407984
C 97.174646 -0.002015 0.004249
C 96.381010 -1.357938 -0.202630
C 96.887777 -2.636149 -0.082669
C 95.850875 -3.537646 -0.434748
C 94.741393 -2.782169 -0.751235
C 93.351740 -3.328891 -1.279308
C 93.360867 -4.607111 -2.029136
C 93.838928 -4.647365 -3.344021
C 93.863933 -5.852357 -4.049041
C 93.413145 -7.025279 -3.442014
C 92.938202 -6.994775 -2.130330
C 92.914145 -5.789727 -1.425735
C 92.216942 -2.608192 -1.078395
C 90.930005 -3.032228 -1.590133
C 90.022047 -2.126495 -1.242931
C 90.684407 -1.078750 -0.492213
N 92.008919 -1.420931 -0.432269
N 95.052328 -1.463121 -0.534118
C 93.834255 4.702829 1.794745
C 93.355992 5.655544 0.887725
C 93.330672 7.008214 1.233163
C 93.781349 7.415987 2.489368
C 94.256522 6.472466 3.400953
C 94.280898 5.120051 3.055171
H 89.299103 1.914358 2.178484
H 91.283829 3.614889 2.906812
H 92.804028 0.893062 0.080965
H 96.459878 4.309112 1.217260
H 98.217644 2.596540 0.470759
H 97.896237 -2.893395 0.203423
H 95.911506 -4.614892 -0.473834
H 94.189243 -3.728141 -3.808536
H 94.235676 -5.867970 -5.068566
H 93.431926 -7.961453 -3.990762
H 92.585221 -7.902471 -1.651637
H 92.544644 -5.753712 -0.403076
H 90.735362 -3.921064 -2.163278
H 88.977604 -2.178219 -1.490471
H 94.391203 -0.692629 -0.570215
H 93.005724 5.328084 -0.088777
H 92.958744 7.735815 0.518932
H 93.762286 8.467598 2.757045
H 94.609400 6.781766 4.379457
H 94.650534 4.375730 3.757320
C 106.316826 -0.002015 0.004249
C 107.110478 1.107808 0.810209
C 106.603752 1.932550 1.794102
C 107.640651 2.821249 2.177342
C 108.750092 2.506447 1.421098
N 108.439141 1.415672 0.648298
C 110.139718 3.266560 1.429742
C 111.274526 2.612718 1.066089
C 112.561457 3.274034 1.000151
C 113.469419 2.385747 0.610472
N 111.482557 1.314064 0.691161
C 112.807065 1.112812 0.407984
C 113.470864 -0.002015 0.004249
C 112.677227 -1.357938 -0.202630
C 113.183994 -2.636149 -0.082669
C 112.147092 -3.537646 -0.434748
C 111.037610 -2.782169 -0.751235
C 109.647958 -3.328891 -1.279308
C 109.657084 -4.607111 -2.029136
C 110.135145 -4.647365 -3.344021
C 110.160150 -5.852357 -4.049041
C 109.709362 -7.025279 -3.442014
C 109.234419 -6.994775 -2.130330
C 109.210362 -5.789727 -1.425735
C 108.513159 -2.608192 -1.078395
C 107.226222 -3.032228 -1.590133
C 106.318264 -2.126495 -1.242931
C 106.980624 -1.078750 -0.492213
N 108.305136 -1.420931 -0.432269
N 111.348545 -1.463121 -0.534118
C 110.130472 4.702829 1.794745
C 109.652209 5.655544 0.887725
C 109.626889 7.008214 1.233163
C 110.077566 7.415987 2.489368
C 110.552739 6.472466 3.400953
C 110.577115 5.120051 3.055171
H 105.595320 1.914358 2.178484
H 107.580046 3.614889 2.906812
H 109.100245 0.893062 0.080965
H 112.756095 4.309112 1.217260
H 114.513861 2.596540 0.470759
H 114.192454 -2.893395 0.203423
H 112.207723 -4.614892 -0.473834
H 110.485460 -3.728141 -3.808536
H 110.531893 -5.867970 -5.068566
H 109.728143 -7.961453 -3.990762
H 108.881438 -7.902471 -1.651637
H 108.840861 -5.753712 -0.403076
H 107.031579 -3.921064 -2.163278
H 105.273821 -2.178219 -1.490471
H 110.687420 -0.692629 -0.570215
H 109.301941 5.328084 -0.088777
H 109.254961 7.735815 0.518932
H 110.058503 8.467598 2.757045
H 110.905617 6.781766 4.379457
H 110.946751 4.375730 3.757320
C 122.613043 -0.002015 0.004249
C 123.406695 1.107808 0.810209
C 122.899969 1.932550 1.794102
C 123.936868 2.821249 2.177342
C 125.046309 2.506447 1.421098
N 124.735358 1.415672 0.648298
C 126.435935 3.266560 1.429742
C 127.570743 2.612718 1.066089
C 128.857674 3.274034 1.000151
C 129.765636 2.385747 0.610472
N 127.778774 1.314064 0.691161
C 129.103283 1.112812 0.407984
C 129.767081 -0.002015 0.004249
C 128.973444 -1.357938 -0.202630
C 129.480211 -2.636149 -0.082669
C 128.443309 -3.537646 -0.434748
C 127.333827 -2.782169 -0.751235
C 125.944175 -3.328891 -1.279308
C 125.953301 -4.607111 -2.029136
C 126.431362 -4.647365 -3.344021
C 126.456367 -5.852357 -4.049041
C 126.005579 -7.025279 -3.442014
C 125.530636 -6.994775 -2.130330
C 125.506579 -5.789727 -1.425735
C 124.809376 -2.608192 -1.078395
C 123.522439 -3.032228 -1.590133
C 122.614481 -2.126495 -1.242931
C 123.276841 -1.078750 -0.492213
N 124.601353 -1.420931 -0.432269
N 127.644762 -1.463121 -0.534118
C 126.426689 4.702829 1.794745
C 125.948426 5.655544 0.887725
C 125.923106 7.008214 1.233163
C 126.373783 7.415987 2.489368
C 126.848956 6.472466 3.400953
C 126.873332 5.120051 3.055171
H 121.891537 1.914358 2.178484
H 123.876263 3.614889 2.906812
H 125.396462 0.893062 0.080965
H 129.052312 4.309112 1.217260
H 130.810078 2.596540 0.470759
H 130.488671 -2.893395 0.203423
H 128.503940 -4.614892 -0.473834
H 126.781677 -3.728141 -3.808536
H 126.828110 -5.867970 -5.068566
H 126.024360 -7.961453 -3.990762
H 125.177655 -7.902471 -1.651637
H 125.137078 -5.753712 -0.403076
H 123.327796 -3.921064 -2.163278
H 121.570038 -2.178219 -1.490471
H 126.983637 -0.692629 -0.570215
H 125.598158 5.328084 -0.088777
H 125.551178 7.735815 0.518932
H 126.354720 8.467598 2.757045
H 127.201834 6.781766 4.379457
H 127.242968 4.375730 3.757320
C 138.909260 -0.002015 0.004249
C 139.702912 1.107808 0.810209
C 139.196186 1.932550 1.794102
C 140.233085 2.821249 2.177342
C 141.342526 2.506447 1.421098
N 141.031575 1.415672 0.648298
C 142.732152 3.266560 1.429742
C 143.866960 2.612718 1.066089
C 145.153891 3.274034 1.000151
C 146.061853 2.385747 0.610472
N 144.074991 1.314064 0.691161
C 145.399500 1.112812 0.407984
C 146.063298 -0.002015 0.004249
C 145.269661 -1.357938 -0.202630
C 145.776428 -2.636149 -0.082669
C 144.739526 -3.537646 -0.434748
C 143.630044 -2.782169 -0.751235
C 142.240392 -3.328891 -1.279308
C 142.249518 -4.607111 -2.029136
C 142.727579 -4.647365 -3.344021
C 142.752584 -5.852357 -4.049041
C 142.301796 -7.025279 -3.442014
C 141.826853 -6.994775 -2.130330
C 141.802796 -5.789727 -1.425735
C 141.105594 -2.608192 -1.078395
C 139.818656 -3.032228 -1.590133
C 138.910698 -2.126495 -1.242931
C 139.573058 -1.078750 -0.492213
N 140.897570 -1.420931 -0.432269
N 143.940979 -1.463121 -0.534118
C 142.722906 4.702829 1.794745
C 142.244643 5.655544 0.887725
C 142.219323 7.008214 1.233163
C 142.670000 7.415987 2.489368
C 143.145173 6.472466 3.400953
C 143.169549 5.120051 3.055171
H 138.187754 1.914358 2.178484
H 140.172480 3.614889 2.906812
H 141.692679 0.893062 0.080965
H 145.348529 4.309112 1.217260
H 147.106295 2.596540 0.470759
H 146.784888 -2.893395 0.203423
H 144.800157 -4.614892 -0.473834
H 143.077894 -3.728141 -3.808536
H 143.124327 -5.867970 -5.068566
H 142.320577 -7.961453 -3.990762
H 141.473872 -7.902471 -1.651637
H 141.433295 -5.753712 -0.403076
H 139.624013 -3.921064 -2.163278
H 137.866256 -2.178219 -1.490471
H 143.279854 -0.692629 -0.570215
H 141.894375 5.328084 -0.088777
H 141.847395 7.735815 0.518932
H 142.650937 8.467598 2.757045
H 143.498051 6.781766 4.379457
H 143.539185 4.375730 3.757320
C 155.205477 -0.002015 0.004249
C 155.999129 1.107808 0.810209
C 155.492403 1.932550 1.794102
C 156.529302 2.821249 2.177342
C 157.638743 2.506447 1.421098
N 157.327792 1.415672 0.648298
C 159.028369 3.266560 1.429742
C 160.163177 2.612718 1.066089
C 161.450108 3.274034 1.000151
C 162.358070 2.385747 0.610472
N 160.371208 1.314064 0.691161
C 161.695717 1.112812 0.407984
C 162.359515 -0.002015 0.004249
C 161.565878 -1.357938 -0.202630
C 162.072645 -2.636149 -0.082669
C 161.035743 -3.537646 -0.434748
C 159.926261 -2.782169 -0.751235
C 158.536609 -3.328891 -1.279308
C 158.545735 -4.607111 -2.029136
C 159.023796 -4.647365 -3.344021
C 159.048801 -5.852357 -4.049041
C 158.598013 -7.025279 -3.442014
C 158.123070 -6.994775 -2.130330
C 158.099013 -5.789727 -1.425735
C 157.401811 -2.608192 -1.078395
C 156.114873 -3.032228 -1.590133
C 155.206915 -2.126495 -1.242931
C 155.869275 -1.078750 -0.492213
N 157.193787 -1.420931 -0.432269
N 160.237196 -1.463121 -0.534118
C 159.019123 4.702829 1.794745
C 158.540860 5.655544 0.887725
C 158.515540 7.008214 1.233163
C 158.966217 7.415987 2.489368
C 159.441390 6.472466 3.400953
C 159.465766 5.120051 3.055171
H 154.483971 1.914358 2.178484
H 156.468697 3.614889 2.906812
H 157.988896 0.893062 0.080965
H 161.644746 4.309112 1.217260
H 163.402512 2.596540 0.470759
H 163.081105 -2.893395 0.203423
H 161.096374 -4.614892 -0.473834
H 159.374111 -3.728141 -3.808536
H 159.420544 -5.867970 -5.068566
H 158.616794 -7.961453 -3.990762
H 157.770089 -7.902471 -1.651637
H 157.729512 -5.753712 -0.403076
H 155.920230 -3.921064 -2.163278
H 154.162473 -2.178219 -1.490471
H 159.576071 -0.692629 -0.570215
H 158.190592 5.328084 -0.088777
H 158.143612 7.735815 0.518932
H 158.947154 8.467598 2.757045
H 159.794268 6.781766 4.379457
H 159.835402 4.375730 3.757320
