 xtb: 6.5.1 (b24c23e)
          07292221533D

203232  0     0  0            999 V2000
   31.4923    0.0446    0.0162 Fe  0  0  0  0  0  0  0  0  0  0  0  0
   28.1100    0.1661    0.0674 C   0  0  0  0  0  0  0  0  0  0  0  0
   28.7589   -0.3057    1.1905 C   0  0  0  0  0  0  0  0  0  0  0  0
   28.0875   -0.7979    2.3556 C   0  0  0  0  0  0  0  0  0  0  0  0
   29.0450   -1.0467    3.2801 C   0  0  0  0  0  0  0  0  0  0  0  0
   30.3001   -0.6905    2.6832 C   0  0  0  0  0  0  0  0  0  0  0  0
   30.1142   -0.2823    1.3901 N   0  0  0  0  0  0  0  0  0  0  0  0
   31.5156   -0.6829    3.3583 C   0  0  0  0  0  0  0  0  0  0  0  0
   31.5328   -1.0339    4.7974 C   0  0  0  0  0  0  0  0  0  0  0  0
   30.8274   -0.2617    5.7235 C   0  0  0  0  0  0  0  0  0  0  0  0
   30.8485   -0.5867    7.0699 C   0  0  0  0  0  0  0  0  0  0  0  0
   31.5747   -1.6948    7.4755 C   0  0  0  0  0  0  0  0  0  0  0  0
   31.6127   -2.1065    9.1794 S   0  0  0  0  0  0  0  0  0  0  0  0
   31.3606   -0.9514    9.9896 O   0  0  0  0  0  0  0  0  0  0  0  0
   30.2923   -3.0510    9.2220 O   0  0  0  0  0  0  0  0  0  0  0  0
   32.7556   -2.9170    9.4806 O   0  0  0  0  0  0  0  0  0  0  0  0
   32.2840   -2.4795    6.5809 C   0  0  0  0  0  0  0  0  0  0  0  0
   32.2618   -2.1414    5.2380 C   0  0  0  0  0  0  0  0  0  0  0  0
   32.7175   -0.3601    2.7422 C   0  0  0  0  0  0  0  0  0  0  0  0
   33.9734   -0.2668    3.4256 C   0  0  0  0  0  0  0  0  0  0  0  0
   34.9185   -0.0536    2.4784 C   0  0  0  0  0  0  0  0  0  0  0  0
   32.8912   -0.1469    1.3963 N   0  0  0  0  0  0  0  0  0  0  0  0
   34.2379   -0.0129    1.2221 C   0  0  0  0  0  0  0  0  0  0  0  0
   34.8968    0.0288   -0.0117 C   0  0  0  0  0  0  0  0  0  0  0  0
   34.2143    0.0779   -1.2328 C   0  0  0  0  0  0  0  0  0  0  0  0
   34.8675    0.0710   -2.5040 C   0  0  0  0  0  0  0  0  0  0  0  0
   33.9077    0.2912   -3.4352 C   0  0  0  0  0  0  0  0  0  0  0  0
   32.6714    0.4417   -2.7267 C   0  0  0  0  0  0  0  0  0  0  0  0
   32.8705    0.2608   -1.3798 N   0  0  0  0  0  0  0  0  0  0  0  0
   31.4674    0.7968   -3.3208 C   0  0  0  0  0  0  0  0  0  0  0  0
   31.4582    1.1101   -4.7683 C   0  0  0  0  0  0  0  0  0  0  0  0
   30.6766    0.3594   -5.6499 C   0  0  0  0  0  0  0  0  0  0  0  0
   30.6664    0.6518   -7.0039 C   0  0  0  0  0  0  0  0  0  0  0  0
   31.4422    1.7037   -7.4630 C   0  0  0  0  0  0  0  0  0  0  0  0
   31.4228    2.0900   -9.1735 S   0  0  0  0  0  0  0  0  0  0  0  0
   31.7515    3.4682   -9.3946 O   0  0  0  0  0  0  0  0  0  0  0  0
   32.7022    1.2031   -9.6372 O   0  0  0  0  0  0  0  0  0  0  0  0
   30.2462    1.5571   -9.7920 O   0  0  0  0  0  0  0  0  0  0  0  0
   32.2232    2.4697   -6.6127 C   0  0  0  0  0  0  0  0  0  0  0  0
   32.2301    2.1654   -5.2616 C   0  0  0  0  0  0  0  0  0  0  0  0
   30.2720    0.8741   -2.6141 C   0  0  0  0  0  0  0  0  0  0  0  0
   29.0208    1.2846   -3.1842 C   0  0  0  0  0  0  0  0  0  0  0  0
   28.0780    1.1054   -2.2293 C   0  0  0  0  0  0  0  0  0  0  0  0
   28.7543    0.5969   -1.0740 C   0  0  0  0  0  0  0  0  0  0  0  0
   30.1026    0.5093   -1.3058 N   0  0  0  0  0  0  0  0  0  0  0  0
   27.0265    0.1948    0.0807 H   0  0  0  0  0  0  0  0  0  0  0  0
   27.0203   -0.9297    2.4367 H   0  0  0  0  0  0  0  0  0  0  0  0
   28.9252   -1.4363    4.2780 H   0  0  0  0  0  0  0  0  0  0  0  0
   30.2753    0.6077    5.3864 H   0  0  0  0  0  0  0  0  0  0  0  0
   30.3164    0.0118    7.7986 H   0  0  0  0  0  0  0  0  0  0  0  0
   30.1301   -3.3584   10.1222 H   0  0  0  0  0  0  0  0  0  0  0  0
   32.8454   -3.3356    6.9335 H   0  0  0  0  0  0  0  0  0  0  0  0
   32.8030   -2.7460    4.5196 H   0  0  0  0  0  0  0  0  0  0  0  0
   34.1042   -0.3508    4.4921 H   0  0  0  0  0  0  0  0  0  0  0  0
   35.9833    0.0603    2.6029 H   0  0  0  0  0  0  0  0  0  0  0  0
   35.9248   -0.0811   -2.6495 H   0  0  0  0  0  0  0  0  0  0  0  0
   34.0168    0.3427   -4.5062 H   0  0  0  0  0  0  0  0  0  0  0  0
   30.0853   -0.4663   -5.2717 H   0  0  0  0  0  0  0  0  0  0  0  0
   30.0641    0.0770   -7.6961 H   0  0  0  0  0  0  0  0  0  0  0  0
   33.0080    1.4907  -10.5059 H   0  0  0  0  0  0  0  0  0  0  0  0
   32.8082    3.2927   -7.0038 H   0  0  0  0  0  0  0  0  0  0  0  0
   32.8243    2.7595   -4.5773 H   0  0  0  0  0  0  0  0  0  0  0  0
   28.8934    1.6618   -4.1858 H   0  0  0  0  0  0  0  0  0  0  0  0
   27.0172    1.2906   -2.2849 H   0  0  0  0  0  0  0  0  0  0  0  0
   63.4554    0.0102   -0.0076 Fe  0  0  0  0  0  0  0  0  0  0  0  0
   66.8406    0.1682   -0.0143 C   0  0  0  0  0  0  0  0  0  0  0  0
   66.1894    0.1599   -1.2308 C   0  0  0  0  0  0  0  0  0  0  0  0
   66.8616    0.1536   -2.4951 C   0  0  0  0  0  0  0  0  0  0  0  0
   65.9031    0.2592   -3.4452 C   0  0  0  0  0  0  0  0  0  0  0  0
   64.6463    0.3435   -2.7585 C   0  0  0  0  0  0  0  0  0  0  0  0
   64.8331    0.2451   -1.4058 N   0  0  0  0  0  0  0  0  0  0  0  0
   63.4266    0.5652   -3.3861 C   0  0  0  0  0  0  0  0  0  0  0  0
   63.4096    0.7665   -4.8543 C   0  0  0  0  0  0  0  0  0  0  0  0
   64.0702    1.8572   -5.4245 C   0  0  0  0  0  0  0  0  0  0  0  0
   64.0492    2.0523   -6.7957 C   0  0  0  0  0  0  0  0  0  0  0  0
   63.3690    1.1408   -7.5868 C   0  0  0  0  0  0  0  0  0  0  0  0
   63.3304    1.3872   -9.3223 S   0  0  0  0  0  0  0  0  0  0  0  0
   63.5345    2.7685   -9.6455 O   0  0  0  0  0  0  0  0  0  0  0  0
   64.6819    0.5720   -9.7051 O   0  0  0  0  0  0  0  0  0  0  0  0
   62.2144    0.7054   -9.9086 O   0  0  0  0  0  0  0  0  0  0  0  0
   62.7057    0.0492   -7.0504 C   0  0  0  0  0  0  0  0  0  0  0  0
   62.7269   -0.1323   -5.6774 C   0  0  0  0  0  0  0  0  0  0  0  0
   62.2207    0.6061   -2.6990 C   0  0  0  0  0  0  0  0  0  0  0  0
   60.9583    0.8938   -3.3125 C   0  0  0  0  0  0  0  0  0  0  0  0
   60.0141    0.7392   -2.3537 C   0  0  0  0  0  0  0  0  0  0  0  0
   62.0513    0.3340   -1.3631 N   0  0  0  0  0  0  0  0  0  0  0  0
   60.7016    0.3647   -1.1577 C   0  0  0  0  0  0  0  0  0  0  0  0
   60.0473   -0.0052    0.0207 C   0  0  0  0  0  0  0  0  0  0  0  0
   60.7300   -0.3574    1.1888 C   0  0  0  0  0  0  0  0  0  0  0  0
   60.0754   -0.7897    2.3834 C   0  0  0  0  0  0  0  0  0  0  0  0
   61.0376   -0.9196    3.3285 C   0  0  0  0  0  0  0  0  0  0  0  0
   62.2770   -0.5553    2.7090 C   0  0  0  0  0  0  0  0  0  0  0  0
   62.0766   -0.2491    1.3851 N   0  0  0  0  0  0  0  0  0  0  0  0
   63.4880   -0.4659    3.3829 C   0  0  0  0  0  0  0  0  0  0  0  0
   63.5034   -0.7020    4.8455 C   0  0  0  0  0  0  0  0  0  0  0  0
   64.2545   -1.7500    5.3831 C   0  0  0  0  0  0  0  0  0  0  0  0
   64.2736   -1.9720    6.7503 C   0  0  0  0  0  0  0  0  0  0  0  0
   63.5371   -1.1329    7.5705 C   0  0  0  0  0  0  0  0  0  0  0  0
   63.5702   -1.3974    9.3039 S   0  0  0  0  0  0  0  0  0  0  0  0
   63.2790   -0.1873   10.0160 O   0  0  0  0  0  0  0  0  0  0  0  0
   62.2687   -2.3612    9.4285 O   0  0  0  0  0  0  0  0  0  0  0  0
   64.7337   -2.1473    9.6712 O   0  0  0  0  0  0  0  0  0  0  0  0
   62.7863   -0.0828    7.0673 C   0  0  0  0  0  0  0  0  0  0  0  0
   62.7704    0.1271    5.6984 C   0  0  0  0  0  0  0  0  0  0  0  0
   64.6858   -0.1644    2.7457 C   0  0  0  0  0  0  0  0  0  0  0  0
   65.9433   -0.0186    3.4215 C   0  0  0  0  0  0  0  0  0  0  0  0
   66.8835    0.1594    2.4644 C   0  0  0  0  0  0  0  0  0  0  0  0
   66.1998    0.1328    1.2065 C   0  0  0  0  0  0  0  0  0  0  0  0
   64.8498   -0.0155    1.3944 N   0  0  0  0  0  0  0  0  0  0  0  0
   67.9242    0.1990   -0.0182 H   0  0  0  0  0  0  0  0  0  0  0  0
   67.9300    0.0762   -2.6193 H   0  0  0  0  0  0  0  0  0  0  0  0
   66.0225    0.2770   -4.5164 H   0  0  0  0  0  0  0  0  0  0  0  0
   64.5871    2.5640   -4.7860 H   0  0  0  0  0  0  0  0  0  0  0  0
   64.5462    2.9013   -7.2480 H   0  0  0  0  0  0  0  0  0  0  0  0
   64.8301    0.5996  -10.6582 H   0  0  0  0  0  0  0  0  0  0  0  0
   62.1796   -0.6407   -7.6983 H   0  0  0  0  0  0  0  0  0  0  0  0
   62.2210   -0.9835   -5.2370 H   0  0  0  0  0  0  0  0  0  0  0  0
   60.8229    1.1788   -4.3431 H   0  0  0  0  0  0  0  0  0  0  0  0
   58.9458    0.8591   -2.4348 H   0  0  0  0  0  0  0  0  0  0  0  0
   59.0158   -0.9670    2.4720 H   0  0  0  0  0  0  0  0  0  0  0  0
   60.9286   -1.2392    4.3520 H   0  0  0  0  0  0  0  0  0  0  0  0
   64.8156   -2.4009    4.7228 H   0  0  0  0  0  0  0  0  0  0  0  0
   64.8530   -2.7804    7.1781 H   0  0  0  0  0  0  0  0  0  0  0  0
   61.9663   -2.3935   10.3442 H   0  0  0  0  0  0  0  0  0  0  0  0
   62.2318    0.5610    7.7385 H   0  0  0  0  0  0  0  0  0  0  0  0
   62.1997    0.9503    5.2848 H   0  0  0  0  0  0  0  0  0  0  0  0
   66.0759   -0.0477    4.4908 H   0  0  0  0  0  0  0  0  0  0  0  0
   67.9472    0.2937    2.5793 H   0  0  0  0  0  0  0  0  0  0  0  0
   40.0956   -0.0156   -0.0507 C   0  0  0  0  0  0  0  0  0  0  0  0
   38.8661   -0.0127   -0.0418 C   0  0  0  0  0  0  0  0  0  0  0  0
   37.5237    0.0028   -0.0340 C   0  0  0  0  0  0  0  0  0  0  0  0
   36.2989    0.0133   -0.0248 C   0  0  0  0  0  0  0  0  0  0  0  0
   41.4379   -0.0264   -0.0498 C   0  0  0  0  0  0  0  0  0  0  0  0
   42.6630   -0.0334   -0.0513 C   0  0  0  0  0  0  0  0  0  0  0  0
   56.0741   -0.0558    0.0312 C   0  0  0  0  0  0  0  0  0  0  0  0
   54.8458   -0.0660    0.0257 C   0  0  0  0  0  0  0  0  0  0  0  0
   53.5014   -0.0698    0.0210 C   0  0  0  0  0  0  0  0  0  0  0  0
   52.2774   -0.0715    0.0109 C   0  0  0  0  0  0  0  0  0  0  0  0
   57.4188   -0.0439    0.0322 C   0  0  0  0  0  0  0  0  0  0  0  0
   58.6425   -0.0307    0.0280 C   0  0  0  0  0  0  0  0  0  0  0  0
   47.4690   -0.0694    0.0084 Fe  0  0  0  0  0  0  0  0  0  0  0  0
   44.0641   -0.0353   -0.0484 C   0  0  0  0  0  0  0  0  0  0  0  0
   44.7365    0.8855    0.7652 C   0  0  0  0  0  0  0  0  0  0  0  0
   44.0757    1.8143    1.6272 C   0  0  0  0  0  0  0  0  0  0  0  0
   45.0300    2.6553    2.0962 C   0  0  0  0  0  0  0  0  0  0  0  0
   46.2697    2.2389    1.5120 C   0  0  0  0  0  0  0  0  0  0  0  0
   46.0791    1.1223    0.7366 N   0  0  0  0  0  0  0  0  0  0  0  0
   47.4698    2.9276    1.6392 C   0  0  0  0  0  0  0  0  0  0  0  0
   47.4681    4.2197    2.3631 C   0  0  0  0  0  0  0  0  0  0  0  0
   48.2424    4.3858    3.5138 C   0  0  0  0  0  0  0  0  0  0  0  0
   48.2400    5.5926    4.1941 C   0  0  0  0  0  0  0  0  0  0  0  0
   47.4607    6.6289    3.7069 C   0  0  0  0  0  0  0  0  0  0  0  0
   47.4642    8.1651    4.5537 S   0  0  0  0  0  0  0  0  0  0  0  0
   47.1498    9.2446    3.6638 O   0  0  0  0  0  0  0  0  0  0  0  0
   46.1685    7.9223    5.5017 O   0  0  0  0  0  0  0  0  0  0  0  0
   48.6270    8.2739    5.3821 O   0  0  0  0  0  0  0  0  0  0  0  0
   46.6877    6.4964    2.5647 C   0  0  0  0  0  0  0  0  0  0  0  0
   46.6916    5.2834    1.8963 C   0  0  0  0  0  0  0  0  0  0  0  0
   48.6706    2.4569    1.1208 C   0  0  0  0  0  0  0  0  0  0  0  0
   49.9150    3.1626    1.1944 C   0  0  0  0  0  0  0  0  0  0  0  0
   50.8701    2.3177    0.7351 C   0  0  0  0  0  0  0  0  0  0  0  0
   48.8572    1.2201    0.5547 N   0  0  0  0  0  0  0  0  0  0  0  0
   50.2048    1.1060    0.3718 C   0  0  0  0  0  0  0  0  0  0  0  0
   50.8739   -0.0641   -0.0039 C   0  0  0  0  0  0  0  0  0  0  0  0
   50.1987   -1.2260   -0.3950 C   0  0  0  0  0  0  0  0  0  0  0  0
   50.8546   -2.4474   -0.7415 C   0  0  0  0  0  0  0  0  0  0  0  0
   49.8991   -3.2768   -1.2284 C   0  0  0  0  0  0  0  0  0  0  0  0
   48.6640   -2.5528   -1.1857 C   0  0  0  0  0  0  0  0  0  0  0  0
   48.8570   -1.3146   -0.6264 N   0  0  0  0  0  0  0  0  0  0  0  0
   47.4664   -3.0072   -1.7264 C   0  0  0  0  0  0  0  0  0  0  0  0
   47.4639   -4.2960   -2.4559 C   0  0  0  0  0  0  0  0  0  0  0  0
   48.2616   -4.4641   -3.5903 C   0  0  0  0  0  0  0  0  0  0  0  0
   48.2604   -5.6663   -4.2785 C   0  0  0  0  0  0  0  0  0  0  0  0
   47.4583   -6.6965   -3.8156 C   0  0  0  0  0  0  0  0  0  0  0  0
   47.4616   -8.2265   -4.6734 S   0  0  0  0  0  0  0  0  0  0  0  0
   47.1158   -9.3084   -3.7983 O   0  0  0  0  0  0  0  0  0  0  0  0
   46.1894   -7.9600   -5.6467 O   0  0  0  0  0  0  0  0  0  0  0  0
   48.6400   -8.3442   -5.4784 O   0  0  0  0  0  0  0  0  0  0  0  0
   46.6627   -6.5625   -2.6892 C   0  0  0  0  0  0  0  0  0  0  0  0
   46.6664   -5.3542   -2.0124 C   0  0  0  0  0  0  0  0  0  0  0  0
   46.2710   -2.3087   -1.6094 C   0  0  0  0  0  0  0  0  0  0  0  0
   45.0317   -2.7203   -2.1983 C   0  0  0  0  0  0  0  0  0  0  0  0
   44.0776   -1.8819   -1.7250 C   0  0  0  0  0  0  0  0  0  0  0  0
   44.7386   -0.9563   -0.8596 C   0  0  0  0  0  0  0  0  0  0  0  0
   46.0829   -1.1854   -0.8417 N   0  0  0  0  0  0  0  0  0  0  0  0
   43.0174    1.8149    1.8328 H   0  0  0  0  0  0  0  0  0  0  0  0
   44.9150    3.4812    2.7791 H   0  0  0  0  0  0  0  0  0  0  0  0
   48.8373    3.5588    3.8834 H   0  0  0  0  0  0  0  0  0  0  0  0
   48.8354    5.7325    5.0875 H   0  0  0  0  0  0  0  0  0  0  0  0
   45.8459    8.7639    5.8460 H   0  0  0  0  0  0  0  0  0  0  0  0
   46.1000    7.3316    2.2049 H   0  0  0  0  0  0  0  0  0  0  0  0
   46.1027    5.1611    0.9949 H   0  0  0  0  0  0  0  0  0  0  0  0
   50.0333    4.1722    1.5524 H   0  0  0  0  0  0  0  0  0  0  0  0
   51.9317    2.4840    0.6493 H   0  0  0  0  0  0  0  0  0  0  0  0
   51.9104   -2.6312   -0.6251 H   0  0  0  0  0  0  0  0  0  0  0  0
   50.0109   -4.2888   -1.5819 H   0  0  0  0  0  0  0  0  0  0  0  0
   48.8740   -3.6417   -3.9411 H   0  0  0  0  0  0  0  0  0  0  0  0
   48.8738   -5.8075   -5.1594 H   0  0  0  0  0  0  0  0  0  0  0  0
   45.8759   -8.7929   -6.0196 H   0  0  0  0  0  0  0  0  0  0  0  0
   46.0580   -7.3932   -2.3477 H   0  0  0  0  0  0  0  0  0  0  0  0
   46.0605   -5.2318   -1.1222 H   0  0  0  0  0  0  0  0  0  0  0  0
   44.9158   -3.5447   -2.8829 H   0  0  0  0  0  0  0  0  0  0  0  0
   43.0190   -1.8821   -1.9290 H   0  0  0  0  0  0  0  0  0  0  0  0
  2  3  4  0  0  0  0
  3  4  4  0  0  0  0
  4  5  2  0  0  0  0
  5  6  4  0  0  0  0
  1  7  1  0  0  0  0
  3  7  4  0  0  0  0
  6  7  4  0  0  0  0
  6  8  4  0  0  0  0
  8  9  1  0  0  0  0
  9 10  4  0  0  0  0
 10 11  4  0  0  0  0
 11 12  4  0  0  0  0
 12 13  1  0  0  0  0
 13 14  2  0  0  0  0
 13 15  1  0  0  0  0
 13 16  2  0  0  0  0
 12 17  4  0  0  0  0
  9 18  4  0  0  0  0
 17 18  4  0  0  0  0
  8 19  4  0  0  0  0
 19 20  4  0  0  0  0
 20 21  2  0  0  0  0
  1 22  1  0  0  0  0
 19 22  4  0  0  0  0
 21 23  4  0  0  0  0
 22 23  4  0  0  0  0
 23 24  4  0  0  0  0
 24 25  4  0  0  0  0
 25 26  4  0  0  0  0
 26 27  2  0  0  0  0
 27 28  4  0  0  0  0
  1 29  1  0  0  0  0
 25 29  4  0  0  0  0
 28 29  4  0  0  0  0
 28 30  4  0  0  0  0
 30 31  1  0  0  0  0
 31 32  4  0  0  0  0
 32 33  4  0  0  0  0
 33 34  4  0  0  0  0
 34 35  1  0  0  0  0
 35 36  2  0  0  0  0
 35 37  1  0  0  0  0
 35 38  2  0  0  0  0
 34 39  4  0  0  0  0
 31 40  4  0  0  0  0
 39 40  4  0  0  0  0
 30 41  4  0  0  0  0
 41 42  4  0  0  0  0
 42 43  2  0  0  0  0
  2 44  4  0  0  0  0
 43 44  4  0  0  0  0
  1 45  1  0  0  0  0
 41 45  4  0  0  0  0
 44 45  4  0  0  0  0
  2 46  1  0  0  0  0
  4 47  1  0  0  0  0
  5 48  1  0  0  0  0
 10 49  1  0  0  0  0
 11 50  1  0  0  0  0
 15 51  1  0  0  0  0
 17 52  1  0  0  0  0
 18 53  1  0  0  0  0
 20 54  1  0  0  0  0
 21 55  1  0  0  0  0
 26 56  1  0  0  0  0
 27 57  1  0  0  0  0
 32 58  1  0  0  0  0
 33 59  1  0  0  0  0
 37 60  1  0  0  0  0
 39 61  1  0  0  0  0
 40 62  1  0  0  0  0
 42 63  1  0  0  0  0
 43 64  1  0  0  0  0
 66 67  4  0  0  0  0
 67 68  4  0  0  0  0
 68 69  2  0  0  0  0
 69 70  4  0  0  0  0
 65 71  1  0  0  0  0
 67 71  4  0  0  0  0
 70 71  4  0  0  0  0
 70 72  4  0  0  0  0
 72 73  1  0  0  0  0
 73 74  4  0  0  0  0
 74 75  4  0  0  0  0
 75 76  4  0  0  0  0
 76 77  1  0  0  0  0
 77 78  2  0  0  0  0
 77 79  1  0  0  0  0
 77 80  2  0  0  0  0
 76 81  4  0  0  0  0
 73 82  4  0  0  0  0
 81 82  4  0  0  0  0
 72 83  4  0  0  0  0
 83 84  4  0  0  0  0
 84 85  2  0  0  0  0
 65 86  1  0  0  0  0
 83 86  4  0  0  0  0
 85 87  4  0  0  0  0
 86 87  4  0  0  0  0
 87 88  4  0  0  0  0
 88 89  4  0  0  0  0
 89 90  4  0  0  0  0
 90 91  2  0  0  0  0
 91 92  4  0  0  0  0
 65 93  1  0  0  0  0
 89 93  4  0  0  0  0
 92 93  4  0  0  0  0
 92 94  4  0  0  0  0
 94 95  1  0  0  0  0
 95 96  4  0  0  0  0
 96 97  4  0  0  0  0
 97 98  4  0  0  0  0
 98 99  1  0  0  0  0
 99100  2  0  0  0  0
 99101  1  0  0  0  0
 99102  2  0  0  0  0
 98103  4  0  0  0  0
 95104  4  0  0  0  0
103104  4  0  0  0  0
 94105  4  0  0  0  0
105106  4  0  0  0  0
106107  2  0  0  0  0
 66108  4  0  0  0  0
107108  4  0  0  0  0
 65109  1  0  0  0  0
105109  4  0  0  0  0
108109  4  0  0  0  0
 66110  1  0  0  0  0
 68111  1  0  0  0  0
 69112  1  0  0  0  0
 74113  1  0  0  0  0
 75114  1  0  0  0  0
 79115  1  0  0  0  0
 81116  1  0  0  0  0
 82117  1  0  0  0  0
 84118  1  0  0  0  0
 85119  1  0  0  0  0
 90120  1  0  0  0  0
 91121  1  0  0  0  0
 96122  1  0  0  0  0
 97123  1  0  0  0  0
101124  1  0  0  0  0
103125  1  0  0  0  0
104126  1  0  0  0  0
106127  1  0  0  0  0
107128  1  0  0  0  0
129130  3  0  0  0  0
130131  4  0  0  0  0
 24132  4  0  0  0  0
131132  3  0  0  0  0
129133  4  0  0  0  0
133134  3  0  0  0  0
135136  3  0  0  0  0
136137  4  0  0  0  0
137138  3  0  0  0  0
135139  4  0  0  0  0
 88140  4  0  0  0  0
139140  3  0  0  0  0
134142  4  0  0  0  0
142143  4  0  0  0  0
143144  4  0  0  0  0
144145  2  0  0  0  0
145146  4  0  0  0  0
141147  1  0  0  0  0
143147  4  0  0  0  0
146147  4  0  0  0  0
146148  4  0  0  0  0
148149  1  0  0  0  0
149150  4  0  0  0  0
150151  4  0  0  0  0
151152  4  0  0  0  0
152153  1  0  0  0  0
153154  2  0  0  0  0
153155  1  0  0  0  0
153156  2  0  0  0  0
152157  4  0  0  0  0
149158  4  0  0  0  0
157158  4  0  0  0  0
148159  4  0  0  0  0
159160  4  0  0  0  0
160161  2  0  0  0  0
141162  1  0  0  0  0
159162  4  0  0  0  0
161163  4  0  0  0  0
162163  4  0  0  0  0
138164  4  0  0  0  0
163164  4  0  0  0  0
164165  4  0  0  0  0
165166  4  0  0  0  0
166167  2  0  0  0  0
167168  4  0  0  0  0
141169  1  0  0  0  0
165169  4  0  0  0  0
168169  4  0  0  0  0
168170  4  0  0  0  0
170171  1  0  0  0  0
171172  4  0  0  0  0
172173  4  0  0  0  0
173174  4  0  0  0  0
174175  1  0  0  0  0
175176  2  0  0  0  0
175177  1  0  0  0  0
175178  2  0  0  0  0
174179  4  0  0  0  0
171180  4  0  0  0  0
179180  4  0  0  0  0
170181  4  0  0  0  0
181182  4  0  0  0  0
182183  2  0  0  0  0
142184  4  0  0  0  0
183184  4  0  0  0  0
141185  1  0  0  0  0
181185  4  0  0  0  0
184185  4  0  0  0  0
144186  1  0  0  0  0
145187  1  0  0  0  0
150188  1  0  0  0  0
151189  1  0  0  0  0
155190  1  0  0  0  0
157191  1  0  0  0  0
158192  1  0  0  0  0
160193  1  0  0  0  0
161194  1  0  0  0  0
166195  1  0  0  0  0
167196  1  0  0  0  0
172197  1  0  0  0  0
173198  1  0  0  0  0
177199  1  0  0  0  0
179200  1  0  0  0  0
180201  1  0  0  0  0
182202  1  0  0  0  0
183203  1  0  0  0  0
M  END
