 xtb: 6.5.1 (b24c23e)
          07272222273D

268295  0     0  0            999 V2000
   41.0235   -0.1367   -0.2921 C   0  0  0  0  0  0  0  0  0  0  0  0
   41.6003    1.0948   -0.5741 C   0  0  0  0  0  0  0  0  0  0  0  0
   40.9158    2.3111   -0.8527 C   0  0  0  0  0  0  0  0  0  0  0  0
   41.8529    3.2790   -1.0814 C   0  0  0  0  0  0  0  0  0  0  0  0
   43.1405    2.6824   -0.9597 C   0  0  0  0  0  0  0  0  0  0  0  0
   42.9370    1.3690   -0.6450 N   0  0  0  0  0  0  0  0  0  0  0  0
   44.3884    3.2985   -1.1061 C   0  0  0  0  0  0  0  0  0  0  0  0
   44.3807    4.7368   -1.4718 C   0  0  0  0  0  0  0  0  0  0  0  0
   44.9459    5.6848   -0.6233 C   0  0  0  0  0  0  0  0  0  0  0  0
   44.9344    7.0364   -0.9653 C   0  0  0  0  0  0  0  0  0  0  0  0
   45.5496    7.9993   -0.0172 C   0  0  0  0  0  0  0  0  0  0  0  0
   45.4956    9.2721   -0.4360 O   0  0  0  0  0  0  0  0  0  0  0  0
   46.0537    7.6925    1.0325 O   0  0  0  0  0  0  0  0  0  0  0  0
   44.3565    7.4493   -2.1658 C   0  0  0  0  0  0  0  0  0  0  0  0
   43.7944    6.5074   -3.0129 C   0  0  0  0  0  0  0  0  0  0  0  0
   43.8035    5.1625   -2.6706 C   0  0  0  0  0  0  0  0  0  0  0  0
   45.6216    2.6657   -0.9347 C   0  0  0  0  0  0  0  0  0  0  0  0
   46.9034    3.3149   -1.1456 C   0  0  0  0  0  0  0  0  0  0  0  0
   47.8482    2.3884   -0.8846 C   0  0  0  0  0  0  0  0  0  0  0  0
   45.8095    1.3666   -0.5726 N   0  0  0  0  0  0  0  0  0  0  0  0
   47.1427    1.1734   -0.5241 C   0  0  0  0  0  0  0  0  0  0  0  0
   47.8107   -0.0178   -0.1748 C   0  0  0  0  0  0  0  0  0  0  0  0
   47.2066   -1.2459    0.1563 C   0  0  0  0  0  0  0  0  0  0  0  0
   47.8816   -2.4339    0.5430 C   0  0  0  0  0  0  0  0  0  0  0  0
   46.9400   -3.3975    0.7763 C   0  0  0  0  0  0  0  0  0  0  0  0
   45.6598   -2.8287    0.5290 C   0  0  0  0  0  0  0  0  0  0  0  0
   45.8728   -1.5253    0.1654 N   0  0  0  0  0  0  0  0  0  0  0  0
   44.4136   -3.4523    0.6508 C   0  0  0  0  0  0  0  0  0  0  0  0
   44.4171   -4.8842    1.0386 C   0  0  0  0  0  0  0  0  0  0  0  0
   45.0475   -5.8375    0.2356 C   0  0  0  0  0  0  0  0  0  0  0  0
   45.0491   -7.1777    0.5971 C   0  0  0  0  0  0  0  0  0  0  0  0
   44.4247   -7.5830    1.7648 C   0  0  0  0  0  0  0  0  0  0  0  0
   43.7925   -6.6400    2.5766 C   0  0  0  0  0  0  0  0  0  0  0  0
   43.1354   -7.1139    3.8208 C   0  0  0  0  0  0  0  0  0  0  0  0
   42.5562   -6.1339    4.5291 O   0  0  0  0  0  0  0  0  0  0  0  0
   43.1105   -8.2633    4.1798 O   0  0  0  0  0  0  0  0  0  0  0  0
   43.7888   -5.2952    2.2127 C   0  0  0  0  0  0  0  0  0  0  0  0
   43.1804   -2.8270    0.4388 C   0  0  0  0  0  0  0  0  0  0  0  0
   41.8945   -3.5033    0.5170 C   0  0  0  0  0  0  0  0  0  0  0  0
   40.9564   -2.5713    0.2549 C   0  0  0  0  0  0  0  0  0  0  0  0
   41.6682   -1.3298    0.0061 C   0  0  0  0  0  0  0  0  0  0  0  0
   43.0054   -1.5239    0.1155 N   0  0  0  0  0  0  0  0  0  0  0  0
   39.9385   -0.1599   -0.3084 H   0  0  0  0  0  0  0  0  0  0  0  0
   39.8431    2.4197   -0.8666 H   0  0  0  0  0  0  0  0  0  0  0  0
   41.6735    4.3180   -1.3056 H   0  0  0  0  0  0  0  0  0  0  0  0
   43.6809    0.6994   -0.4794 H   0  0  0  0  0  0  0  0  0  0  0  0
   45.3881    5.3837    0.3200 H   0  0  0  0  0  0  0  0  0  0  0  0
   45.9158    9.8348    0.2345 H   0  0  0  0  0  0  0  0  0  0  0  0
   44.3496    8.4997   -2.4304 H   0  0  0  0  0  0  0  0  0  0  0  0
   43.3465    6.8206   -3.9492 H   0  0  0  0  0  0  0  0  0  0  0  0
   43.3745    4.4300   -3.3453 H   0  0  0  0  0  0  0  0  0  0  0  0
   47.0397    4.3361   -1.4626 H   0  0  0  0  0  0  0  0  0  0  0  0
   48.9207    2.4893   -0.9308 H   0  0  0  0  0  0  0  0  0  0  0  0
   48.9516   -2.5277    0.6355 H   0  0  0  0  0  0  0  0  0  0  0  0
   47.1138   -4.4102    1.1019 H   0  0  0  0  0  0  0  0  0  0  0  0
   45.1333   -0.8655   -0.0526 H   0  0  0  0  0  0  0  0  0  0  0  0
   45.5237   -5.5256   -0.6873 H   0  0  0  0  0  0  0  0  0  0  0  0
   45.5387   -7.9063   -0.0389 H   0  0  0  0  0  0  0  0  0  0  0  0
   44.4168   -8.6256    2.0621 H   0  0  0  0  0  0  0  0  0  0  0  0
   42.1523   -6.5234    5.3216 H   0  0  0  0  0  0  0  0  0  0  0  0
   43.3097   -4.5633    2.8522 H   0  0  0  0  0  0  0  0  0  0  0  0
   41.7542   -4.5506    0.7307 H   0  0  0  0  0  0  0  0  0  0  0  0
   39.8842   -2.6837    0.2183 H   0  0  0  0  0  0  0  0  0  0  0  0
   95.8370    0.0205   -0.4389 C   0  0  0  0  0  0  0  0  0  0  0  0
   95.2648   -1.2226   -0.2019 C   0  0  0  0  0  0  0  0  0  0  0  0
   95.9531   -2.4528   -0.0060 C   0  0  0  0  0  0  0  0  0  0  0  0
   95.0200   -3.4299    0.1982 C   0  0  0  0  0  0  0  0  0  0  0  0
   93.7305   -2.8297    0.1222 C   0  0  0  0  0  0  0  0  0  0  0  0
   93.9296   -1.4990   -0.1126 N   0  0  0  0  0  0  0  0  0  0  0  0
   92.4854   -3.4499    0.2748 C   0  0  0  0  0  0  0  0  0  0  0  0
   92.4960   -4.9147    0.5142 C   0  0  0  0  0  0  0  0  0  0  0  0
   91.9732   -5.4409    1.6922 C   0  0  0  0  0  0  0  0  0  0  0  0
   91.9855   -6.8165    1.9191 C   0  0  0  0  0  0  0  0  0  0  0  0
   91.4190   -7.3162    3.1974 C   0  0  0  0  0  0  0  0  0  0  0  0
   91.4775   -8.6499    3.3239 O   0  0  0  0  0  0  0  0  0  0  0  0
   90.9479   -6.6127    4.0536 O   0  0  0  0  0  0  0  0  0  0  0  0
   92.5203   -7.6784    0.9618 C   0  0  0  0  0  0  0  0  0  0  0  0
   93.0402   -7.1572   -0.2125 C   0  0  0  0  0  0  0  0  0  0  0  0
   93.0314   -5.7874   -0.4360 C   0  0  0  0  0  0  0  0  0  0  0  0
   91.2507   -2.7998    0.2168 C   0  0  0  0  0  0  0  0  0  0  0  0
   89.9711   -3.4795    0.3161 C   0  0  0  0  0  0  0  0  0  0  0  0
   89.0229   -2.5270    0.2034 C   0  0  0  0  0  0  0  0  0  0  0  0
   91.0577   -1.4646    0.0330 N   0  0  0  0  0  0  0  0  0  0  0  0
   89.7239   -1.2690    0.0300 C   0  0  0  0  0  0  0  0  0  0  0  0
   89.0523   -0.0373   -0.1076 C   0  0  0  0  0  0  0  0  0  0  0  0
   89.6534    1.2226   -0.2930 C   0  0  0  0  0  0  0  0  0  0  0  0
   88.9768    2.4670   -0.3951 C   0  0  0  0  0  0  0  0  0  0  0  0
   89.9159    3.4442   -0.5767 C   0  0  0  0  0  0  0  0  0  0  0  0
   91.1954    2.8233   -0.6008 C   0  0  0  0  0  0  0  0  0  0  0  0
   90.9853    1.4822   -0.4169 N   0  0  0  0  0  0  0  0  0  0  0  0
   92.4387    3.4440   -0.7577 C   0  0  0  0  0  0  0  0  0  0  0  0
   92.4303    4.9138   -0.9630 C   0  0  0  0  0  0  0  0  0  0  0  0
   91.8037    5.4711   -2.0797 C   0  0  0  0  0  0  0  0  0  0  0  0
   91.7982    6.8454   -2.2751 C   0  0  0  0  0  0  0  0  0  0  0  0
   92.4123    7.6799   -1.3565 C   0  0  0  0  0  0  0  0  0  0  0  0
   93.0389    7.1352   -0.2345 C   0  0  0  0  0  0  0  0  0  0  0  0
   93.6809    8.0636    0.7298 C   0  0  0  0  0  0  0  0  0  0  0  0
   94.2511    7.4443    1.7733 O   0  0  0  0  0  0  0  0  0  0  0  0
   93.7004    9.2618    0.6085 O   0  0  0  0  0  0  0  0  0  0  0  0
   93.0493    5.7554   -0.0411 C   0  0  0  0  0  0  0  0  0  0  0  0
   93.6726    2.7862   -0.7370 C   0  0  0  0  0  0  0  0  0  0  0  0
   94.9530    3.4412   -0.9560 C   0  0  0  0  0  0  0  0  0  0  0  0
   95.8937    2.4797   -0.8673 C   0  0  0  0  0  0  0  0  0  0  0  0
   95.1887    1.2376   -0.6024 C   0  0  0  0  0  0  0  0  0  0  0  0
   93.8529    1.4590   -0.5388 N   0  0  0  0  0  0  0  0  0  0  0  0
   96.9206    0.0335   -0.4985 H   0  0  0  0  0  0  0  0  0  0  0  0
   97.0259   -2.5613   -0.0154 H   0  0  0  0  0  0  0  0  0  0  0  0
   95.2035   -4.4740    0.3933 H   0  0  0  0  0  0  0  0  0  0  0  0
   93.1842   -0.8161   -0.1977 H   0  0  0  0  0  0  0  0  0  0  0  0
   91.5639   -4.7849    2.4526 H   0  0  0  0  0  0  0  0  0  0  0  0
   91.0908   -8.8959    4.1800 H   0  0  0  0  0  0  0  0  0  0  0  0
   92.5266   -8.7471    1.1384 H   0  0  0  0  0  0  0  0  0  0  0  0
   93.4540   -7.8215   -0.9627 H   0  0  0  0  0  0  0  0  0  0  0  0
   93.4275   -5.3884   -1.3632 H   0  0  0  0  0  0  0  0  0  0  0  0
   89.8383   -4.5419    0.4407 H   0  0  0  0  0  0  0  0  0  0  0  0
   87.9508   -2.6383    0.2272 H   0  0  0  0  0  0  0  0  0  0  0  0
   87.9078    2.5897   -0.3300 H   0  0  0  0  0  0  0  0  0  0  0  0
   89.7415    4.5031   -0.6761 H   0  0  0  0  0  0  0  0  0  0  0  0
   91.7253    0.7894   -0.3722 H   0  0  0  0  0  0  0  0  0  0  0  0
   91.3330    4.8189   -2.8069 H   0  0  0  0  0  0  0  0  0  0  0  0
   91.3131    7.2630   -3.1500 H   0  0  0  0  0  0  0  0  0  0  0  0
   92.4161    8.7554   -1.4929 H   0  0  0  0  0  0  0  0  0  0  0  0
   94.6442    8.1163    2.3536 H   0  0  0  0  0  0  0  0  0  0  0  0
   93.5263    5.3355    0.8365 H   0  0  0  0  0  0  0  0  0  0  0  0
   95.0871    4.4913   -1.1604 H   0  0  0  0  0  0  0  0  0  0  0  0
   96.9635    2.5695   -0.9725 H   0  0  0  0  0  0  0  0  0  0  0  0
   53.0116    0.0419   -0.0700 C   0  0  0  0  0  0  0  0  0  0  0  0
   51.7833    0.0358   -0.0960 C   0  0  0  0  0  0  0  0  0  0  0  0
   50.4396    0.0206   -0.1229 C   0  0  0  0  0  0  0  0  0  0  0  0
   49.2159    0.0076   -0.1476 C   0  0  0  0  0  0  0  0  0  0  0  0
   54.3551    0.0450   -0.0405 C   0  0  0  0  0  0  0  0  0  0  0  0
   55.5791    0.0406   -0.0132 C   0  0  0  0  0  0  0  0  0  0  0  0
   69.0460    0.0044    0.1090 C   0  0  0  0  0  0  0  0  0  0  0  0
   67.8171    0.0087    0.1140 C   0  0  0  0  0  0  0  0  0  0  0  0
   66.4738    0.0115    0.1154 C   0  0  0  0  0  0  0  0  0  0  0  0
   65.2493    0.0153    0.1163 C   0  0  0  0  0  0  0  0  0  0  0  0
   70.3893    0.0011    0.1035 C   0  0  0  0  0  0  0  0  0  0  0  0
   71.6138   -0.0054    0.0984 C   0  0  0  0  0  0  0  0  0  0  0  0
   85.0806   -0.0505    0.0081 C   0  0  0  0  0  0  0  0  0  0  0  0
   83.8523   -0.0431    0.0320 C   0  0  0  0  0  0  0  0  0  0  0  0
   82.5087   -0.0353    0.0509 C   0  0  0  0  0  0  0  0  0  0  0  0
   81.2845   -0.0252    0.0620 C   0  0  0  0  0  0  0  0  0  0  0  0
   86.4242   -0.0479   -0.0227 C   0  0  0  0  0  0  0  0  0  0  0  0
   87.6478   -0.0496   -0.0566 C   0  0  0  0  0  0  0  0  0  0  0  0
   56.9832    0.0372    0.0174 C   0  0  0  0  0  0  0  0  0  0  0  0
   57.6102    1.2857    0.1954 C   0  0  0  0  0  0  0  0  0  0  0  0
   56.9626    2.5413    0.3246 C   0  0  0  0  0  0  0  0  0  0  0  0
   57.9267    3.4948    0.5077 C   0  0  0  0  0  0  0  0  0  0  0  0
   59.1914    2.8458    0.5035 C   0  0  0  0  0  0  0  0  0  0  0  0
   58.9498    1.5137    0.3006 N   0  0  0  0  0  0  0  0  0  0  0  0
   60.4500    3.4400    0.6579 C   0  0  0  0  0  0  0  0  0  0  0  0
   60.4604    4.9031    0.9095 C   0  0  0  0  0  0  0  0  0  0  0  0
   61.0814    5.7701    0.0150 C   0  0  0  0  0  0  0  0  0  0  0  0
   61.0888    7.1441    0.2518 C   0  0  0  0  0  0  0  0  0  0  0  0
   61.7642    8.0173   -0.7412 C   0  0  0  0  0  0  0  0  0  0  0  0
   61.7163    9.3205   -0.4288 O   0  0  0  0  0  0  0  0  0  0  0  0
   62.3116    7.6180   -1.7368 O   0  0  0  0  0  0  0  0  0  0  0  0
   60.4743    7.6607    1.3923 C   0  0  0  0  0  0  0  0  0  0  0  0
   59.8565    6.7993    2.2852 C   0  0  0  0  0  0  0  0  0  0  0  0
   59.8466    5.4320    2.0475 C   0  0  0  0  0  0  0  0  0  0  0  0
   61.6759    2.7767    0.5932 C   0  0  0  0  0  0  0  0  0  0  0  0
   62.9593    3.4226    0.8054 C   0  0  0  0  0  0  0  0  0  0  0  0
   63.8984    2.4673    0.6484 C   0  0  0  0  0  0  0  0  0  0  0  0
   61.8560    1.4512    0.3376 N   0  0  0  0  0  0  0  0  0  0  0  0
   63.1871    1.2390    0.3528 C   0  0  0  0  0  0  0  0  0  0  0  0
   63.8453    0.0159    0.1117 C   0  0  0  0  0  0  0  0  0  0  0  0
   63.2193   -1.2211   -0.1379 C   0  0  0  0  0  0  0  0  0  0  0  0
   63.8693   -2.4530   -0.4078 C   0  0  0  0  0  0  0  0  0  0  0  0
   62.9053   -3.4088   -0.5777 C   0  0  0  0  0  0  0  0  0  0  0  0
   61.6378   -2.7882   -0.4067 C   0  0  0  0  0  0  0  0  0  0  0  0
   61.8786   -1.4645   -0.1524 N   0  0  0  0  0  0  0  0  0  0  0  0
   60.3782   -3.3932   -0.4940 C   0  0  0  0  0  0  0  0  0  0  0  0
   60.3654   -4.8557   -0.7483 C   0  0  0  0  0  0  0  0  0  0  0  0
   59.7645   -5.3674   -1.9007 C   0  0  0  0  0  0  0  0  0  0  0  0
   59.7525   -6.7335   -2.1450 C   0  0  0  0  0  0  0  0  0  0  0  0
   60.3379   -7.6057   -1.2425 C   0  0  0  0  0  0  0  0  0  0  0  0
   60.9416   -7.1068   -0.0873 C   0  0  0  0  0  0  0  0  0  0  0  0
   61.5590   -8.0736    0.8551 C   0  0  0  0  0  0  0  0  0  0  0  0
   62.1323   -7.4939    1.9199 O   0  0  0  0  0  0  0  0  0  0  0  0
   61.5614   -9.2676    0.6983 O   0  0  0  0  0  0  0  0  0  0  0  0
   60.9553   -5.7350    0.1572 C   0  0  0  0  0  0  0  0  0  0  0  0
   59.1516   -2.7394   -0.3657 C   0  0  0  0  0  0  0  0  0  0  0  0
   57.8666   -3.4147   -0.4009 C   0  0  0  0  0  0  0  0  0  0  0  0
   56.9273   -2.4566   -0.2600 C   0  0  0  0  0  0  0  0  0  0  0  0
   57.6401   -1.2013   -0.1287 C   0  0  0  0  0  0  0  0  0  0  0  0
   58.9722   -1.4022   -0.1829 N   0  0  0  0  0  0  0  0  0  0  0  0
   55.8957    2.6883    0.2777 H   0  0  0  0  0  0  0  0  0  0  0  0
   57.7768    4.5556    0.6253 H   0  0  0  0  0  0  0  0  0  0  0  0
   59.6698    0.8021    0.2334 H   0  0  0  0  0  0  0  0  0  0  0  0
   61.5529    5.3876   -0.8836 H   0  0  0  0  0  0  0  0  0  0  0  0
   62.1780    9.8203   -1.1216 H   0  0  0  0  0  0  0  0  0  0  0  0
   60.4825    8.7283    1.5755 H   0  0  0  0  0  0  0  0  0  0  0  0
   59.3797    7.1933    3.1756 H   0  0  0  0  0  0  0  0  0  0  0  0
   59.3733    4.7630    2.7575 H   0  0  0  0  0  0  0  0  0  0  0  0
   63.1005    4.4624    1.0515 H   0  0  0  0  0  0  0  0  0  0  0  0
   64.9700    2.5568    0.7270 H   0  0  0  0  0  0  0  0  0  0  0  0
   64.9379   -2.5817   -0.4679 H   0  0  0  0  0  0  0  0  0  0  0  0
   63.0575   -4.4502   -0.8099 H   0  0  0  0  0  0  0  0  0  0  0  0
   61.1572   -0.7665   -0.0052 H   0  0  0  0  0  0  0  0  0  0  0  0
   59.3176   -4.6850   -2.6149 H   0  0  0  0  0  0  0  0  0  0  0  0
   59.2853   -7.1154   -3.0455 H   0  0  0  0  0  0  0  0  0  0  0  0
   60.3372   -8.6756   -1.4175 H   0  0  0  0  0  0  0  0  0  0  0  0
   62.5099   -8.1890    2.4831 H   0  0  0  0  0  0  0  0  0  0  0  0
   61.4108   -5.3522    1.0628 H   0  0  0  0  0  0  0  0  0  0  0  0
   57.7241   -4.4782   -0.5041 H   0  0  0  0  0  0  0  0  0  0  0  0
   55.8547   -2.5636   -0.2356 H   0  0  0  0  0  0  0  0  0  0  0  0
   73.0177   -0.0072    0.0925 C   0  0  0  0  0  0  0  0  0  0  0  0
   73.6467    1.2416    0.2637 C   0  0  0  0  0  0  0  0  0  0  0  0
   72.9997    2.4957    0.4092 C   0  0  0  0  0  0  0  0  0  0  0  0
   73.9658    3.4516    0.5667 C   0  0  0  0  0  0  0  0  0  0  0  0
   75.2315    2.8055    0.5311 C   0  0  0  0  0  0  0  0  0  0  0  0
   74.9878    1.4724    0.3356 N   0  0  0  0  0  0  0  0  0  0  0  0
   76.4922    3.4022    0.6540 C   0  0  0  0  0  0  0  0  0  0  0  0
   76.5060    4.8663    0.9002 C   0  0  0  0  0  0  0  0  0  0  0  0
   77.1038    5.7318   -0.0114 C   0  0  0  0  0  0  0  0  0  0  0  0
   77.1135    7.1066    0.2208 C   0  0  0  0  0  0  0  0  0  0  0  0
   77.7639    7.9785   -0.7899 C   0  0  0  0  0  0  0  0  0  0  0  0
   77.7184    9.2825   -0.4808 O   0  0  0  0  0  0  0  0  0  0  0  0
   78.2888    7.5777   -1.7969 O   0  0  0  0  0  0  0  0  0  0  0  0
   76.5246    7.6254    1.3738 C   0  0  0  0  0  0  0  0  0  0  0  0
   75.9303    6.7655    2.2839 C   0  0  0  0  0  0  0  0  0  0  0  0
   75.9181    5.3975    2.0508 C   0  0  0  0  0  0  0  0  0  0  0  0
   77.7175    2.7400    0.5670 C   0  0  0  0  0  0  0  0  0  0  0  0
   79.0038    3.3880    0.7533 C   0  0  0  0  0  0  0  0  0  0  0  0
   79.9407    2.4317    0.5890 C   0  0  0  0  0  0  0  0  0  0  0  0
   77.8939    1.4132    0.3165 N   0  0  0  0  0  0  0  0  0  0  0  0
   79.2254    1.2014    0.3127 C   0  0  0  0  0  0  0  0  0  0  0  0
   79.8801   -0.0232    0.0711 C   0  0  0  0  0  0  0  0  0  0  0  0
   79.2514   -1.2604   -0.1697 C   0  0  0  0  0  0  0  0  0  0  0  0
   79.8983   -2.4916   -0.4496 C   0  0  0  0  0  0  0  0  0  0  0  0
   78.9324   -3.4463   -0.6150 C   0  0  0  0  0  0  0  0  0  0  0  0
   77.6669   -2.8257   -0.4302 C   0  0  0  0  0  0  0  0  0  0  0  0
   77.9104   -1.5032   -0.1728 N   0  0  0  0  0  0  0  0  0  0  0  0
   76.4061   -3.4299   -0.5076 C   0  0  0  0  0  0  0  0  0  0  0  0
   76.3910   -4.8911   -0.7705 C   0  0  0  0  0  0  0  0  0  0  0  0
   75.7815   -5.3962   -1.9212 C   0  0  0  0  0  0  0  0  0  0  0  0
   75.7695   -6.7609   -2.1737 C   0  0  0  0  0  0  0  0  0  0  0  0
   76.3630   -7.6379   -1.2813 C   0  0  0  0  0  0  0  0  0  0  0  0
   76.9743   -7.1454   -0.1273 C   0  0  0  0  0  0  0  0  0  0  0  0
   77.5996   -8.1169    0.8051 C   0  0  0  0  0  0  0  0  0  0  0  0
   78.1732   -7.5430    1.8728 O   0  0  0  0  0  0  0  0  0  0  0  0
   77.6069   -9.3096    0.6388 O   0  0  0  0  0  0  0  0  0  0  0  0
   76.9883   -5.7751    0.1254 C   0  0  0  0  0  0  0  0  0  0  0  0
   75.1814   -2.7775   -0.3590 C   0  0  0  0  0  0  0  0  0  0  0  0
   73.8964   -3.4536   -0.3798 C   0  0  0  0  0  0  0  0  0  0  0  0
   72.9591   -2.4979   -0.2123 C   0  0  0  0  0  0  0  0  0  0  0  0
   73.6732   -1.2432   -0.0815 C   0  0  0  0  0  0  0  0  0  0  0  0
   75.0040   -1.4420   -0.1615 N   0  0  0  0  0  0  0  0  0  0  0  0
   71.9316    2.6404    0.3887 H   0  0  0  0  0  0  0  0  0  0  0  0
   73.8163    4.5122    0.6867 H   0  0  0  0  0  0  0  0  0  0  0  0
   75.7081    0.7632    0.2495 H   0  0  0  0  0  0  0  0  0  0  0  0
   77.5553    5.3474   -0.9194 H   0  0  0  0  0  0  0  0  0  0  0  0
   78.1625    9.7817   -1.1854 H   0  0  0  0  0  0  0  0  0  0  0  0
   76.5346    8.6936    1.5534 H   0  0  0  0  0  0  0  0  0  0  0  0
   75.4737    7.1614    3.1840 H   0  0  0  0  0  0  0  0  0  0  0  0
   75.4634    4.7296    2.7739 H   0  0  0  0  0  0  0  0  0  0  0  0
   79.1482    4.4297    0.9892 H   0  0  0  0  0  0  0  0  0  0  0  0
   81.0134    2.5219    0.6504 H   0  0  0  0  0  0  0  0  0  0  0  0
   80.9662   -2.6208   -0.5198 H   0  0  0  0  0  0  0  0  0  0  0  0
   79.0821   -4.4866   -0.8531 H   0  0  0  0  0  0  0  0  0  0  0  0
   77.1905   -0.8058   -0.0160 H   0  0  0  0  0  0  0  0  0  0  0  0
   75.3278   -4.7101   -2.6274 H   0  0  0  0  0  0  0  0  0  0  0  0
   75.2960   -7.1380   -3.0730 H   0  0  0  0  0  0  0  0  0  0  0  0
   76.3626   -8.7067   -1.4631 H   0  0  0  0  0  0  0  0  0  0  0  0
   78.5556   -8.2405    2.4297 H   0  0  0  0  0  0  0  0  0  0  0  0
   77.4504   -5.3972    1.0297 H   0  0  0  0  0  0  0  0  0  0  0  0
   73.7533   -4.5161   -0.4914 H   0  0  0  0  0  0  0  0  0  0  0  0
   71.8871   -2.6058   -0.1701 H   0  0  0  0  0  0  0  0  0  0  0  0
  1  2  4  0  0  0  0
  2  3  4  0  0  0  0
  3  4  2  0  0  0  0
  4  5  4  0  0  0  0
  2  6  4  0  0  0  0
  5  6  4  0  0  0  0
  5  7  4  0  0  0  0
  7  8  1  0  0  0  0
  8  9  4  0  0  0  0
  9 10  4  0  0  0  0
 10 11  1  0  0  0  0
 11 12  4  0  0  0  0
 11 13  2  0  0  0  0
 10 14  4  0  0  0  0
 14 15  4  0  0  0  0
  8 16  4  0  0  0  0
 15 16  4  0  0  0  0
  7 17  4  0  0  0  0
 17 18  1  0  0  0  0
 18 19  2  0  0  0  0
 17 20  4  0  0  0  0
 19 21  1  0  0  0  0
 20 21  4  0  0  0  0
 21 22  4  0  0  0  0
 22 23  4  0  0  0  0
 23 24  4  0  0  0  0
 24 25  2  0  0  0  0
 25 26  4  0  0  0  0
 23 27  4  0  0  0  0
 26 27  4  0  0  0  0
 26 28  4  0  0  0  0
 28 29  1  0  0  0  0
 29 30  4  0  0  0  0
 30 31  4  0  0  0  0
 31 32  4  0  0  0  0
 32 33  4  0  0  0  0
 33 34  1  0  0  0  0
 34 35  4  0  0  0  0
 34 36  2  0  0  0  0
 29 37  4  0  0  0  0
 33 37  4  0  0  0  0
 28 38  4  0  0  0  0
 38 39  1  0  0  0  0
 39 40  2  0  0  0  0
  1 41  4  0  0  0  0
 40 41  1  0  0  0  0
 38 42  4  0  0  0  0
 41 42  4  0  0  0  0
  1 43  1  0  0  0  0
  3 44  1  0  0  0  0
  4 45  1  0  0  0  0
  6 46  1  0  0  0  0
  9 47  1  0  0  0  0
 12 48  1  0  0  0  0
 14 49  1  0  0  0  0
 15 50  1  0  0  0  0
 16 51  1  0  0  0  0
 18 52  1  0  0  0  0
 19 53  1  0  0  0  0
 24 54  1  0  0  0  0
 25 55  1  0  0  0  0
 27 56  1  0  0  0  0
 30 57  1  0  0  0  0
 31 58  1  0  0  0  0
 32 59  1  0  0  0  0
 35 60  1  0  0  0  0
 37 61  1  0  0  0  0
 39 62  1  0  0  0  0
 40 63  1  0  0  0  0
 64 65  4  0  0  0  0
 65 66  4  0  0  0  0
 66 67  2  0  0  0  0
 67 68  4  0  0  0  0
 65 69  4  0  0  0  0
 68 69  4  0  0  0  0
 68 70  4  0  0  0  0
 70 71  1  0  0  0  0
 71 72  4  0  0  0  0
 72 73  4  0  0  0  0
 73 74  1  0  0  0  0
 74 75  4  0  0  0  0
 74 76  2  0  0  0  0
 73 77  4  0  0  0  0
 77 78  4  0  0  0  0
 71 79  4  0  0  0  0
 78 79  4  0  0  0  0
 70 80  4  0  0  0  0
 80 81  1  0  0  0  0
 81 82  2  0  0  0  0
 80 83  4  0  0  0  0
 82 84  1  0  0  0  0
 83 84  4  0  0  0  0
 84 85  4  0  0  0  0
 85 86  4  0  0  0  0
 86 87  4  0  0  0  0
 87 88  2  0  0  0  0
 88 89  4  0  0  0  0
 86 90  4  0  0  0  0
 89 90  4  0  0  0  0
 89 91  4  0  0  0  0
 91 92  1  0  0  0  0
 92 93  4  0  0  0  0
 93 94  4  0  0  0  0
 94 95  4  0  0  0  0
 95 96  4  0  0  0  0
 96 97  1  0  0  0  0
 97 98  4  0  0  0  0
 97 99  2  0  0  0  0
 92100  4  0  0  0  0
 96100  4  0  0  0  0
 91101  4  0  0  0  0
101102  1  0  0  0  0
102103  2  0  0  0  0
 64104  4  0  0  0  0
103104  1  0  0  0  0
101105  4  0  0  0  0
104105  4  0  0  0  0
 64106  1  0  0  0  0
 66107  1  0  0  0  0
 67108  1  0  0  0  0
 69109  1  0  0  0  0
 72110  1  0  0  0  0
 75111  1  0  0  0  0
 77112  1  0  0  0  0
 78113  1  0  0  0  0
 79114  1  0  0  0  0
 81115  1  0  0  0  0
 82116  1  0  0  0  0
 87117  1  0  0  0  0
 88118  1  0  0  0  0
 90119  1  0  0  0  0
 93120  1  0  0  0  0
 94121  1  0  0  0  0
 95122  1  0  0  0  0
 98123  1  0  0  0  0
100124  1  0  0  0  0
102125  1  0  0  0  0
103126  1  0  0  0  0
127128  3  0  0  0  0
128129  4  0  0  0  0
 22130  4  0  0  0  0
129130  3  0  0  0  0
127131  4  0  0  0  0
131132  3  0  0  0  0
133134  3  0  0  0  0
134135  4  0  0  0  0
135136  3  0  0  0  0
133137  4  0  0  0  0
137138  3  0  0  0  0
139140  3  0  0  0  0
140141  4  0  0  0  0
141142  3  0  0  0  0
139143  4  0  0  0  0
 85144  4  0  0  0  0
143144  3  0  0  0  0
132145  4  0  0  0  0
145146  4  0  0  0  0
146147  4  0  0  0  0
147148  2  0  0  0  0
148149  4  0  0  0  0
146150  4  0  0  0  0
149150  4  0  0  0  0
149151  4  0  0  0  0
151152  1  0  0  0  0
152153  4  0  0  0  0
153154  4  0  0  0  0
154155  1  0  0  0  0
155156  4  0  0  0  0
155157  2  0  0  0  0
154158  4  0  0  0  0
158159  4  0  0  0  0
152160  4  0  0  0  0
159160  4  0  0  0  0
151161  4  0  0  0  0
161162  1  0  0  0  0
162163  2  0  0  0  0
161164  4  0  0  0  0
163165  1  0  0  0  0
164165  4  0  0  0  0
136166  4  0  0  0  0
165166  4  0  0  0  0
166167  4  0  0  0  0
167168  4  0  0  0  0
168169  2  0  0  0  0
169170  4  0  0  0  0
167171  4  0  0  0  0
170171  4  0  0  0  0
170172  4  0  0  0  0
172173  1  0  0  0  0
173174  4  0  0  0  0
174175  4  0  0  0  0
175176  4  0  0  0  0
176177  4  0  0  0  0
177178  1  0  0  0  0
178179  4  0  0  0  0
178180  2  0  0  0  0
173181  4  0  0  0  0
177181  4  0  0  0  0
172182  4  0  0  0  0
182183  1  0  0  0  0
183184  2  0  0  0  0
145185  4  0  0  0  0
184185  1  0  0  0  0
182186  4  0  0  0  0
185186  4  0  0  0  0
147187  1  0  0  0  0
148188  1  0  0  0  0
150189  1  0  0  0  0
153190  1  0  0  0  0
156191  1  0  0  0  0
158192  1  0  0  0  0
159193  1  0  0  0  0
160194  1  0  0  0  0
162195  1  0  0  0  0
163196  1  0  0  0  0
168197  1  0  0  0  0
169198  1  0  0  0  0
171199  1  0  0  0  0
174200  1  0  0  0  0
175201  1  0  0  0  0
176202  1  0  0  0  0
179203  1  0  0  0  0
181204  1  0  0  0  0
183205  1  0  0  0  0
184206  1  0  0  0  0
138207  4  0  0  0  0
207208  4  0  0  0  0
208209  4  0  0  0  0
209210  2  0  0  0  0
210211  4  0  0  0  0
208212  4  0  0  0  0
211212  4  0  0  0  0
211213  4  0  0  0  0
213214  1  0  0  0  0
214215  4  0  0  0  0
215216  4  0  0  0  0
216217  1  0  0  0  0
217218  4  0  0  0  0
217219  2  0  0  0  0
216220  4  0  0  0  0
220221  4  0  0  0  0
214222  4  0  0  0  0
221222  4  0  0  0  0
213223  4  0  0  0  0
223224  1  0  0  0  0
224225  2  0  0  0  0
223226  4  0  0  0  0
225227  1  0  0  0  0
226227  4  0  0  0  0
142228  4  0  0  0  0
227228  4  0  0  0  0
228229  4  0  0  0  0
229230  4  0  0  0  0
230231  2  0  0  0  0
231232  4  0  0  0  0
229233  4  0  0  0  0
232233  4  0  0  0  0
232234  4  0  0  0  0
234235  1  0  0  0  0
235236  4  0  0  0  0
236237  4  0  0  0  0
237238  4  0  0  0  0
238239  4  0  0  0  0
239240  1  0  0  0  0
240241  4  0  0  0  0
240242  2  0  0  0  0
235243  4  0  0  0  0
239243  4  0  0  0  0
234244  4  0  0  0  0
244245  1  0  0  0  0
245246  2  0  0  0  0
207247  4  0  0  0  0
246247  1  0  0  0  0
244248  4  0  0  0  0
247248  4  0  0  0  0
209249  1  0  0  0  0
210250  1  0  0  0  0
212251  1  0  0  0  0
215252  1  0  0  0  0
218253  1  0  0  0  0
220254  1  0  0  0  0
221255  1  0  0  0  0
222256  1  0  0  0  0
224257  1  0  0  0  0
225258  1  0  0  0  0
230259  1  0  0  0  0
231260  1  0  0  0  0
233261  1  0  0  0  0
236262  1  0  0  0  0
237263  1  0  0  0  0
238264  1  0  0  0  0
241265  1  0  0  0  0
243266  1  0  0  0  0
245267  1  0  0  0  0
246268  1  0  0  0  0
M  END
