 xtb: 6.5.1 (b24c23e)
          07282205543D

222242  0     0  0            999 V2000
   35.9584    0.0228    0.1738 C   0  0  0  0  0  0  0  0  0  0  0  0
   36.5879   -0.1154    1.4044 C   0  0  0  0  0  0  0  0  0  0  0  0
   35.9617   -0.2061    2.6783 C   0  0  0  0  0  0  0  0  0  0  0  0
   36.9406   -0.3782    3.6173 C   0  0  0  0  0  0  0  0  0  0  0  0
   38.1953   -0.4110    2.9454 C   0  0  0  0  0  0  0  0  0  0  0  0
   37.9331   -0.2280    1.6170 N   0  0  0  0  0  0  0  0  0  0  0  0
   39.4641   -0.6065    3.5050 C   0  0  0  0  0  0  0  0  0  0  0  0
   39.5203   -0.8620    4.9614 C   0  0  0  0  0  0  0  0  0  0  0  0
   40.2772   -0.0448    5.8033 C   0  0  0  0  0  0  0  0  0  0  0  0
   40.3221   -0.2654    7.1678 C   0  0  0  0  0  0  0  0  0  0  0  0
   39.6112   -1.3252    7.7505 C   0  0  0  0  0  0  0  0  0  0  0  0
   39.6935   -1.5868    9.1158 N   0  0  0  0  0  0  0  0  0  0  0  0
   40.1681   -0.5057    9.9798 C   0  0  0  0  0  0  0  0  0  0  0  0
   38.6224   -2.3912    9.7066 C   0  0  0  0  0  0  0  0  0  0  0  0
   38.8689   -2.1585    6.9002 C   0  0  0  0  0  0  0  0  0  0  0  0
   38.8210   -1.9240    5.5381 C   0  0  0  0  0  0  0  0  0  0  0  0
   40.6653   -0.5784    2.7894 C   0  0  0  0  0  0  0  0  0  0  0  0
   41.9545   -0.9073    3.3674 C   0  0  0  0  0  0  0  0  0  0  0  0
   42.8671   -0.7329    2.3884 C   0  0  0  0  0  0  0  0  0  0  0  0
   40.8140   -0.2470    1.4770 N   0  0  0  0  0  0  0  0  0  0  0  0
   42.1366   -0.3026    1.2145 C   0  0  0  0  0  0  0  0  0  0  0  0
   42.7682    0.0304   -0.0026 C   0  0  0  0  0  0  0  0  0  0  0  0
   42.1076    0.3309   -1.2103 C   0  0  0  0  0  0  0  0  0  0  0  0
   42.7159    0.7120   -2.4334 C   0  0  0  0  0  0  0  0  0  0  0  0
   41.7318    0.8458   -3.3741 C   0  0  0  0  0  0  0  0  0  0  0  0
   40.4885    0.5492   -2.7526 C   0  0  0  0  0  0  0  0  0  0  0  0
   40.7645    0.2642   -1.4412 N   0  0  0  0  0  0  0  0  0  0  0  0
   39.2222    0.5548   -3.3525 C   0  0  0  0  0  0  0  0  0  0  0  0
   39.1819    0.7713   -4.8148 C   0  0  0  0  0  0  0  0  0  0  0  0
   38.4386    1.8115   -5.3763 C   0  0  0  0  0  0  0  0  0  0  0  0
   38.4068    2.0135   -6.7440 C   0  0  0  0  0  0  0  0  0  0  0  0
   39.1182    1.1741   -7.6147 C   0  0  0  0  0  0  0  0  0  0  0  0
   39.0429    1.3369   -8.9949 N   0  0  0  0  0  0  0  0  0  0  0  0
   40.0966    0.7206   -9.8021 C   0  0  0  0  0  0  0  0  0  0  0  0
   38.5941    2.6367   -9.4952 C   0  0  0  0  0  0  0  0  0  0  0  0
   39.8527    0.1204   -7.0498 C   0  0  0  0  0  0  0  0  0  0  0  0
   39.8872   -0.0678   -5.6806 C   0  0  0  0  0  0  0  0  0  0  0  0
   38.0154    0.3732   -2.6674 C   0  0  0  0  0  0  0  0  0  0  0  0
   36.7086    0.3282   -3.3043 C   0  0  0  0  0  0  0  0  0  0  0  0
   35.8036    0.1966   -2.3128 C   0  0  0  0  0  0  0  0  0  0  0  0
   36.5576    0.1391   -1.0738 C   0  0  0  0  0  0  0  0  0  0  0  0
   37.8864    0.2306   -1.3269 N   0  0  0  0  0  0  0  0  0  0  0  0
   34.8734    0.0324    0.1990 H   0  0  0  0  0  0  0  0  0  0  0  0
   34.8979   -0.1412    2.8433 H   0  0  0  0  0  0  0  0  0  0  0  0
   36.8094   -0.4651    4.6837 H   0  0  0  0  0  0  0  0  0  0  0  0
   38.6423   -0.1838    0.8930 H   0  0  0  0  0  0  0  0  0  0  0  0
   40.8216    0.7943    5.3838 H   0  0  0  0  0  0  0  0  0  0  0  0
   40.9208    0.4024    7.7737 H   0  0  0  0  0  0  0  0  0  0  0  0
   39.5604    0.3989    9.8648 H   0  0  0  0  0  0  0  0  0  0  0  0
   40.1228   -0.8372   11.0167 H   0  0  0  0  0  0  0  0  0  0  0  0
   41.2078   -0.2781    9.7425 H   0  0  0  0  0  0  0  0  0  0  0  0
   37.6355   -1.9717    9.4825 H   0  0  0  0  0  0  0  0  0  0  0  0
   38.6780   -3.4117    9.3265 H   0  0  0  0  0  0  0  0  0  0  0  0
   38.7597   -2.4245   10.7868 H   0  0  0  0  0  0  0  0  0  0  0  0
   38.3247   -3.0081    7.2925 H   0  0  0  0  0  0  0  0  0  0  0  0
   38.2494   -2.5945    4.9053 H   0  0  0  0  0  0  0  0  0  0  0  0
   42.1172   -1.2487    4.3770 H   0  0  0  0  0  0  0  0  0  0  0  0
   43.9308   -0.9001    2.4281 H   0  0  0  0  0  0  0  0  0  0  0  0
   43.7719    0.8739   -2.5693 H   0  0  0  0  0  0  0  0  0  0  0  0
   41.8537    1.1419   -4.4032 H   0  0  0  0  0  0  0  0  0  0  0  0
   40.0623    0.0424   -0.7434 H   0  0  0  0  0  0  0  0  0  0  0  0
   37.8961    2.4911   -4.7280 H   0  0  0  0  0  0  0  0  0  0  0  0
   37.8170    2.8372   -7.1252 H   0  0  0  0  0  0  0  0  0  0  0  0
   39.9507    0.9984  -10.8453 H   0  0  0  0  0  0  0  0  0  0  0  0
   41.0920    1.0453   -9.4793 H   0  0  0  0  0  0  0  0  0  0  0  0
   40.0271   -0.3652   -9.7282 H   0  0  0  0  0  0  0  0  0  0  0  0
   37.5517    2.7955   -9.2173 H   0  0  0  0  0  0  0  0  0  0  0  0
   38.6584    2.6378  -10.5827 H   0  0  0  0  0  0  0  0  0  0  0  0
   39.2067    3.4539   -9.0983 H   0  0  0  0  0  0  0  0  0  0  0  0
   40.4018   -0.5718   -7.6751 H   0  0  0  0  0  0  0  0  0  0  0  0
   40.4536   -0.8991   -5.2746 H   0  0  0  0  0  0  0  0  0  0  0  0
   36.5310    0.3756   -4.3667 H   0  0  0  0  0  0  0  0  0  0  0  0
   34.7292    0.1279   -2.3837 H   0  0  0  0  0  0  0  0  0  0  0  0
   64.5664   -0.1060   -0.0428 C   0  0  0  0  0  0  0  0  0  0  0  0
   63.9754    0.0880   -1.2848 C   0  0  0  0  0  0  0  0  0  0  0  0
   64.6437    0.2829   -2.5252 C   0  0  0  0  0  0  0  0  0  0  0  0
   63.6931    0.4324   -3.4963 C   0  0  0  0  0  0  0  0  0  0  0  0
   62.4137    0.3223   -2.8817 C   0  0  0  0  0  0  0  0  0  0  0  0
   62.6350    0.1240   -1.5481 N   0  0  0  0  0  0  0  0  0  0  0  0
   61.1591    0.4246   -3.4948 C   0  0  0  0  0  0  0  0  0  0  0  0
   61.1523    0.6115   -4.9642 C   0  0  0  0  0  0  0  0  0  0  0  0
   60.5561    1.7304   -5.5478 C   0  0  0  0  0  0  0  0  0  0  0  0
   60.5524    1.9079   -6.9196 C   0  0  0  0  0  0  0  0  0  0  0  0
   61.1459    0.9636   -7.7703 C   0  0  0  0  0  0  0  0  0  0  0  0
   61.0950    1.1021   -9.1552 N   0  0  0  0  0  0  0  0  0  0  0  0
   60.7815    2.4274   -9.6891 C   0  0  0  0  0  0  0  0  0  0  0  0
   62.0947    0.3701   -9.9353 C   0  0  0  0  0  0  0  0  0  0  0  0
   61.7330   -0.1668   -7.1822 C   0  0  0  0  0  0  0  0  0  0  0  0
   61.7401   -0.3315   -5.8091 C   0  0  0  0  0  0  0  0  0  0  0  0
   59.9330    0.3595   -2.8268 C   0  0  0  0  0  0  0  0  0  0  0  0
   58.6481    0.4243   -3.4975 C   0  0  0  0  0  0  0  0  0  0  0  0
   57.7094    0.3293   -2.5332 C   0  0  0  0  0  0  0  0  0  0  0  0
   59.7511    0.2060   -1.4852 N   0  0  0  0  0  0  0  0  0  0  0  0
   58.4178    0.1868   -1.2780 C   0  0  0  0  0  0  0  0  0  0  0  0
   57.7533    0.0482   -0.0412 C   0  0  0  0  0  0  0  0  0  0  0  0
   58.3742   -0.1185    1.2126 C   0  0  0  0  0  0  0  0  0  0  0  0
   57.7200   -0.2370    2.4659 C   0  0  0  0  0  0  0  0  0  0  0  0
   58.6766   -0.3745    3.4335 C   0  0  0  0  0  0  0  0  0  0  0  0
   59.9481   -0.3628    2.7979 C   0  0  0  0  0  0  0  0  0  0  0  0
   59.7138   -0.1990    1.4573 N   0  0  0  0  0  0  0  0  0  0  0  0
   61.2013   -0.4731    3.4127 C   0  0  0  0  0  0  0  0  0  0  0  0
   61.2120   -0.6513    4.8823 C   0  0  0  0  0  0  0  0  0  0  0  0
   61.8662    0.2639    5.7091 C   0  0  0  0  0  0  0  0  0  0  0  0
   61.8721    0.1131    7.0837 C   0  0  0  0  0  0  0  0  0  0  0  0
   61.2235   -0.9717    7.6927 C   0  0  0  0  0  0  0  0  0  0  0  0
   61.2716   -1.1617    9.0709 N   0  0  0  0  0  0  0  0  0  0  0  0
   60.2417   -2.0159    9.6645 C   0  0  0  0  0  0  0  0  0  0  0  0
   61.6379   -0.0115    9.8974 C   0  0  0  0  0  0  0  0  0  0  0  0
   60.5830   -1.9007    6.8587 C   0  0  0  0  0  0  0  0  0  0  0  0
   60.5737   -1.7365    5.4856 C   0  0  0  0  0  0  0  0  0  0  0  0
   62.4287   -0.4263    2.7419 C   0  0  0  0  0  0  0  0  0  0  0  0
   63.7184   -0.6164    3.3871 C   0  0  0  0  0  0  0  0  0  0  0  0
   64.6507   -0.5106    2.4184 C   0  0  0  0  0  0  0  0  0  0  0  0
   63.9312   -0.2687    1.1812 C   0  0  0  0  0  0  0  0  0  0  0  0
   62.5956   -0.2321    1.4124 N   0  0  0  0  0  0  0  0  0  0  0  0
   65.6515   -0.1337   -0.0384 H   0  0  0  0  0  0  0  0  0  0  0  0
   65.7151    0.3115   -2.6451 H   0  0  0  0  0  0  0  0  0  0  0  0
   63.8590    0.6146   -4.5458 H   0  0  0  0  0  0  0  0  0  0  0  0
   61.9021    0.0267   -0.8534 H   0  0  0  0  0  0  0  0  0  0  0  0
   60.1065    2.4873   -4.9143 H   0  0  0  0  0  0  0  0  0  0  0  0
   60.0789    2.7959   -7.3178 H   0  0  0  0  0  0  0  0  0  0  0  0
   61.4911    3.1840   -9.3353 H   0  0  0  0  0  0  0  0  0  0  0  0
   60.8163    2.3858  -10.7773 H   0  0  0  0  0  0  0  0  0  0  0  0
   59.7707    2.7099   -9.3936 H   0  0  0  0  0  0  0  0  0  0  0  0
   63.1107    0.5832   -9.5853 H   0  0  0  0  0  0  0  0  0  0  0  0
   61.9037   -0.7012   -9.8641 H   0  0  0  0  0  0  0  0  0  0  0  0
   62.0090    0.6603  -10.9818 H   0  0  0  0  0  0  0  0  0  0  0  0
   62.1837   -0.9387   -7.7928 H   0  0  0  0  0  0  0  0  0  0  0  0
   62.1894   -1.2231   -5.3848 H   0  0  0  0  0  0  0  0  0  0  0  0
   58.5016    0.5150   -4.5615 H   0  0  0  0  0  0  0  0  0  0  0  0
   56.6378    0.3488   -2.6402 H   0  0  0  0  0  0  0  0  0  0  0  0
   56.6522   -0.2170    2.6055 H   0  0  0  0  0  0  0  0  0  0  0  0
   58.5160   -0.4661    4.4952 H   0  0  0  0  0  0  0  0  0  0  0  0
   60.4414   -0.1363    0.7529 H   0  0  0  0  0  0  0  0  0  0  0  0
   62.3591    1.1237    5.2682 H   0  0  0  0  0  0  0  0  0  0  0  0
   62.3905    0.8555    7.6767 H   0  0  0  0  0  0  0  0  0  0  0  0
   60.3416   -1.9891   10.7489 H   0  0  0  0  0  0  0  0  0  0  0  0
   59.2355   -1.6823    9.3879 H   0  0  0  0  0  0  0  0  0  0  0  0
   60.3854   -3.0460    9.3365 H   0  0  0  0  0  0  0  0  0  0  0  0
   62.6661    0.2806    9.6815 H   0  0  0  0  0  0  0  0  0  0  0  0
   61.5814   -0.2991   10.9468 H   0  0  0  0  0  0  0  0  0  0  0  0
   60.9713    0.8404    9.7219 H   0  0  0  0  0  0  0  0  0  0  0  0
   60.0901   -2.7706    7.2734 H   0  0  0  0  0  0  0  0  0  0  0  0
   60.0820   -2.4794    4.8667 H   0  0  0  0  0  0  0  0  0  0  0  0
   63.8662   -0.8205    4.4355 H   0  0  0  0  0  0  0  0  0  0  0  0
   65.7232   -0.5947    2.5007 H   0  0  0  0  0  0  0  0  0  0  0  0
   44.1767    0.0634   -0.0242 C   0  0  0  0  0  0  0  0  0  0  0  0
   45.3947    0.1005   -0.0366 C   0  0  0  0  0  0  0  0  0  0  0  0
   55.1256    0.1004   -0.0464 C   0  0  0  0  0  0  0  0  0  0  0  0
   56.3440    0.0771   -0.0469 C   0  0  0  0  0  0  0  0  0  0  0  0
   46.8027    0.1305   -0.0392 C   0  0  0  0  0  0  0  0  0  0  0  0
   47.4396    0.1310    1.2181 C   0  0  0  0  0  0  0  0  0  0  0  0
   46.8086    0.0902    2.4865 C   0  0  0  0  0  0  0  0  0  0  0  0
   47.7830    0.1374    3.4460 C   0  0  0  0  0  0  0  0  0  0  0  0
   49.0402    0.2277    2.7903 C   0  0  0  0  0  0  0  0  0  0  0  0
   48.7827    0.2056    1.4450 N   0  0  0  0  0  0  0  0  0  0  0  0
   50.3003    0.3327    3.3944 C   0  0  0  0  0  0  0  0  0  0  0  0
   50.3198    0.3906    4.8739 C   0  0  0  0  0  0  0  0  0  0  0  0
   49.6327    1.3849    5.5728 C   0  0  0  0  0  0  0  0  0  0  0  0
   49.6426    1.4261    6.9550 C   0  0  0  0  0  0  0  0  0  0  0  0
   50.3329    0.4591    7.7015 C   0  0  0  0  0  0  0  0  0  0  0  0
   50.3742    0.5254    9.0920 N   0  0  0  0  0  0  0  0  0  0  0  0
   49.2920    1.2544    9.7561 C   0  0  0  0  0  0  0  0  0  0  0  0
   50.8053   -0.6740    9.8104 C   0  0  0  0  0  0  0  0  0  0  0  0
   51.0348   -0.5303    6.9970 C   0  0  0  0  0  0  0  0  0  0  0  0
   51.0278   -0.5579    5.6144 C   0  0  0  0  0  0  0  0  0  0  0  0
   51.5242    0.3795    2.7221 C   0  0  0  0  0  0  0  0  0  0  0  0
   52.7942    0.6117    3.3846 C   0  0  0  0  0  0  0  0  0  0  0  0
   53.7412    0.5571    2.4245 C   0  0  0  0  0  0  0  0  0  0  0  0
   51.7183    0.2212    1.3842 N   0  0  0  0  0  0  0  0  0  0  0  0
   53.0506    0.2960    1.1797 C   0  0  0  0  0  0  0  0  0  0  0  0
   53.7176    0.1231   -0.0506 C   0  0  0  0  0  0  0  0  0  0  0  0
   53.0788   -0.0231   -1.2983 C   0  0  0  0  0  0  0  0  0  0  0  0
   53.7020   -0.2481   -2.5507 C   0  0  0  0  0  0  0  0  0  0  0  0
   52.7278   -0.2625   -3.5118 C   0  0  0  0  0  0  0  0  0  0  0  0
   51.4782   -0.0465   -2.8721 C   0  0  0  0  0  0  0  0  0  0  0  0
   51.7381    0.0718   -1.5330 N   0  0  0  0  0  0  0  0  0  0  0  0
   50.2209    0.0238   -3.4886 C   0  0  0  0  0  0  0  0  0  0  0  0
   50.2202   -0.0044   -4.9694 C   0  0  0  0  0  0  0  0  0  0  0  0
   50.9151    0.9626   -5.6988 C   0  0  0  0  0  0  0  0  0  0  0  0
   50.9181    0.9539   -7.0814 C   0  0  0  0  0  0  0  0  0  0  0  0
   50.2346   -0.0401   -7.7977 C   0  0  0  0  0  0  0  0  0  0  0  0
   50.1969   -0.0207   -9.1894 N   0  0  0  0  0  0  0  0  0  0  0  0
   49.7927   -1.2514   -9.8695 C   0  0  0  0  0  0  0  0  0  0  0  0
   51.2592    0.7151   -9.8770 C   0  0  0  0  0  0  0  0  0  0  0  0
   49.5347   -1.0091   -7.0631 C   0  0  0  0  0  0  0  0  0  0  0  0
   49.5279   -0.9862   -5.6801 C   0  0  0  0  0  0  0  0  0  0  0  0
   48.9948    0.1188   -2.8275 C   0  0  0  0  0  0  0  0  0  0  0  0
   47.7190    0.2313   -3.5098 C   0  0  0  0  0  0  0  0  0  0  0  0
   46.7720    0.2418   -2.5487 C   0  0  0  0  0  0  0  0  0  0  0  0
   47.4684    0.1609   -1.2823 C   0  0  0  0  0  0  0  0  0  0  0  0
   48.8020    0.1028   -1.4791 N   0  0  0  0  0  0  0  0  0  0  0  0
   45.7446    0.0338    2.6427 H   0  0  0  0  0  0  0  0  0  0  0  0
   47.6417    0.1036    4.5138 H   0  0  0  0  0  0  0  0  0  0  0  0
   49.4917    0.2325    0.7199 H   0  0  0  0  0  0  0  0  0  0  0  0
   49.1004    2.1542    5.0238 H   0  0  0  0  0  0  0  0  0  0  0  0
   49.1097    2.2297    7.4468 H   0  0  0  0  0  0  0  0  0  0  0  0
   49.3925    1.1322   10.8339 H   0  0  0  0  0  0  0  0  0  0  0  0
   49.3707    2.3176    9.5269 H   0  0  0  0  0  0  0  0  0  0  0  0
   48.3091    0.8856    9.4425 H   0  0  0  0  0  0  0  0  0  0  0  0
   51.8436   -0.8950    9.5621 H   0  0  0  0  0  0  0  0  0  0  0  0
   50.1784   -1.5388    9.5651 H   0  0  0  0  0  0  0  0  0  0  0  0
   50.7472   -0.4827   10.8815 H   0  0  0  0  0  0  0  0  0  0  0  0
   51.5952   -1.2945    7.5199 H   0  0  0  0  0  0  0  0  0  0  0  0
   51.5630   -1.3469    5.0972 H   0  0  0  0  0  0  0  0  0  0  0  0
   52.9223    0.8132    4.4358 H   0  0  0  0  0  0  0  0  0  0  0  0
   54.8046    0.7005    2.5238 H   0  0  0  0  0  0  0  0  0  0  0  0
   54.7594   -0.3937   -2.6940 H   0  0  0  0  0  0  0  0  0  0  0  0
   52.8615   -0.4256   -4.5687 H   0  0  0  0  0  0  0  0  0  0  0  0
   51.0330    0.2069   -0.8163 H   0  0  0  0  0  0  0  0  0  0  0  0
   51.4439    1.7502   -5.1727 H   0  0  0  0  0  0  0  0  0  0  0  0
   51.4555    1.7396   -7.5966 H   0  0  0  0  0  0  0  0  0  0  0  0
   50.4285   -2.0972   -9.5843 H   0  0  0  0  0  0  0  0  0  0  0  0
   48.7543   -1.4788   -9.6271 H   0  0  0  0  0  0  0  0  0  0  0  0
   49.8630   -1.0986  -10.9460 H   0  0  0  0  0  0  0  0  0  0  0  0
   52.2519    0.3765   -9.5604 H   0  0  0  0  0  0  0  0  0  0  0  0
   51.1558    0.5642  -10.9510 H   0  0  0  0  0  0  0  0  0  0  0  0
   51.1575    1.7816   -9.6737 H   0  0  0  0  0  0  0  0  0  0  0  0
   48.9845   -1.7956   -7.5633 H   0  0  0  0  0  0  0  0  0  0  0  0
   48.9941   -1.7605   -5.1399 H   0  0  0  0  0  0  0  0  0  0  0  0
   47.5844    0.3049   -4.5767 H   0  0  0  0  0  0  0  0  0  0  0  0
   45.7029    0.3070   -2.6640 H   0  0  0  0  0  0  0  0  0  0  0  0
  1  2  4  0  0  0  0
  2  3  4  0  0  0  0
  3  4  2  0  0  0  0
  4  5  4  0  0  0  0
  2  6  4  0  0  0  0
  5  6  4  0  0  0  0
  5  7  4  0  0  0  0
  7  8  1  0  0  0  0
  8  9  4  0  0  0  0
  9 10  4  0  0  0  0
 10 11  4  0  0  0  0
 11 12  1  0  0  0  0
 12 13  1  0  0  0  0
 12 14  1  0  0  0  0
 11 15  4  0  0  0  0
  8 16  4  0  0  0  0
 15 16  4  0  0  0  0
  7 17  4  0  0  0  0
 17 18  1  0  0  0  0
 18 19  2  0  0  0  0
 17 20  4  0  0  0  0
 19 21  1  0  0  0  0
 20 21  4  0  0  0  0
 21 22  4  0  0  0  0
 22 23  4  0  0  0  0
 23 24  4  0  0  0  0
 24 25  2  0  0  0  0
 25 26  4  0  0  0  0
 23 27  4  0  0  0  0
 26 27  4  0  0  0  0
 26 28  4  0  0  0  0
 28 29  1  0  0  0  0
 29 30  4  0  0  0  0
 30 31  4  0  0  0  0
 31 32  4  0  0  0  0
 32 33  1  0  0  0  0
 33 34  1  0  0  0  0
 33 35  1  0  0  0  0
 32 36  4  0  0  0  0
 29 37  4  0  0  0  0
 36 37  4  0  0  0  0
 28 38  4  0  0  0  0
 38 39  1  0  0  0  0
 39 40  2  0  0  0  0
  1 41  4  0  0  0  0
 40 41  1  0  0  0  0
 38 42  4  0  0  0  0
 41 42  4  0  0  0  0
  1 43  1  0  0  0  0
  3 44  1  0  0  0  0
  4 45  1  0  0  0  0
  6 46  1  0  0  0  0
  9 47  1  0  0  0  0
 10 48  1  0  0  0  0
 13 49  1  0  0  0  0
 13 50  1  0  0  0  0
 13 51  1  0  0  0  0
 14 52  1  0  0  0  0
 14 53  1  0  0  0  0
 14 54  1  0  0  0  0
 15 55  1  0  0  0  0
 16 56  1  0  0  0  0
 18 57  1  0  0  0  0
 19 58  1  0  0  0  0
 24 59  1  0  0  0  0
 25 60  1  0  0  0  0
 27 61  1  0  0  0  0
 30 62  1  0  0  0  0
 31 63  1  0  0  0  0
 34 64  1  0  0  0  0
 34 65  1  0  0  0  0
 34 66  1  0  0  0  0
 35 67  1  0  0  0  0
 35 68  1  0  0  0  0
 35 69  1  0  0  0  0
 36 70  1  0  0  0  0
 37 71  1  0  0  0  0
 39 72  1  0  0  0  0
 40 73  1  0  0  0  0
 74 75  4  0  0  0  0
 75 76  4  0  0  0  0
 76 77  2  0  0  0  0
 77 78  4  0  0  0  0
 75 79  4  0  0  0  0
 78 79  4  0  0  0  0
 78 80  4  0  0  0  0
 80 81  1  0  0  0  0
 81 82  4  0  0  0  0
 82 83  4  0  0  0  0
 83 84  4  0  0  0  0
 84 85  1  0  0  0  0
 85 86  1  0  0  0  0
 85 87  1  0  0  0  0
 84 88  4  0  0  0  0
 81 89  4  0  0  0  0
 88 89  4  0  0  0  0
 80 90  4  0  0  0  0
 90 91  1  0  0  0  0
 91 92  2  0  0  0  0
 90 93  4  0  0  0  0
 92 94  1  0  0  0  0
 93 94  4  0  0  0  0
 94 95  4  0  0  0  0
 95 96  4  0  0  0  0
 96 97  4  0  0  0  0
 97 98  2  0  0  0  0
 98 99  4  0  0  0  0
 96100  4  0  0  0  0
 99100  4  0  0  0  0
 99101  4  0  0  0  0
101102  1  0  0  0  0
102103  4  0  0  0  0
103104  4  0  0  0  0
104105  4  0  0  0  0
105106  1  0  0  0  0
106107  1  0  0  0  0
106108  1  0  0  0  0
105109  4  0  0  0  0
102110  4  0  0  0  0
109110  4  0  0  0  0
101111  4  0  0  0  0
111112  1  0  0  0  0
112113  2  0  0  0  0
 74114  4  0  0  0  0
113114  1  0  0  0  0
111115  4  0  0  0  0
114115  4  0  0  0  0
 74116  1  0  0  0  0
 76117  1  0  0  0  0
 77118  1  0  0  0  0
 79119  1  0  0  0  0
 82120  1  0  0  0  0
 83121  1  0  0  0  0
 86122  1  0  0  0  0
 86123  1  0  0  0  0
 86124  1  0  0  0  0
 87125  1  0  0  0  0
 87126  1  0  0  0  0
 87127  1  0  0  0  0
 88128  1  0  0  0  0
 89129  1  0  0  0  0
 91130  1  0  0  0  0
 92131  1  0  0  0  0
 97132  1  0  0  0  0
 98133  1  0  0  0  0
100134  1  0  0  0  0
103135  1  0  0  0  0
104136  1  0  0  0  0
107137  1  0  0  0  0
107138  1  0  0  0  0
107139  1  0  0  0  0
108140  1  0  0  0  0
108141  1  0  0  0  0
108142  1  0  0  0  0
109143  1  0  0  0  0
110144  1  0  0  0  0
112145  1  0  0  0  0
113146  1  0  0  0  0
 22147  4  0  0  0  0
147148  3  0  0  0  0
 95150  4  0  0  0  0
149150  3  0  0  0  0
148151  4  0  0  0  0
151152  4  0  0  0  0
152153  4  0  0  0  0
153154  2  0  0  0  0
154155  4  0  0  0  0
152156  4  0  0  0  0
155156  4  0  0  0  0
155157  4  0  0  0  0
157158  1  0  0  0  0
158159  4  0  0  0  0
159160  4  0  0  0  0
160161  4  0  0  0  0
161162  1  0  0  0  0
162163  1  0  0  0  0
162164  1  0  0  0  0
161165  4  0  0  0  0
158166  4  0  0  0  0
165166  4  0  0  0  0
157167  4  0  0  0  0
167168  1  0  0  0  0
168169  2  0  0  0  0
167170  4  0  0  0  0
169171  1  0  0  0  0
170171  4  0  0  0  0
149172  4  0  0  0  0
171172  4  0  0  0  0
172173  4  0  0  0  0
173174  4  0  0  0  0
174175  2  0  0  0  0
175176  4  0  0  0  0
173177  4  0  0  0  0
176177  4  0  0  0  0
176178  4  0  0  0  0
178179  1  0  0  0  0
179180  4  0  0  0  0
180181  4  0  0  0  0
181182  4  0  0  0  0
182183  1  0  0  0  0
183184  1  0  0  0  0
183185  1  0  0  0  0
182186  4  0  0  0  0
179187  4  0  0  0  0
186187  4  0  0  0  0
178188  4  0  0  0  0
188189  1  0  0  0  0
189190  2  0  0  0  0
151191  4  0  0  0  0
190191  1  0  0  0  0
188192  4  0  0  0  0
191192  4  0  0  0  0
153193  1  0  0  0  0
154194  1  0  0  0  0
156195  1  0  0  0  0
159196  1  0  0  0  0
160197  1  0  0  0  0
163198  1  0  0  0  0
163199  1  0  0  0  0
163200  1  0  0  0  0
164201  1  0  0  0  0
164202  1  0  0  0  0
164203  1  0  0  0  0
165204  1  0  0  0  0
166205  1  0  0  0  0
168206  1  0  0  0  0
169207  1  0  0  0  0
174208  1  0  0  0  0
175209  1  0  0  0  0
177210  1  0  0  0  0
180211  1  0  0  0  0
181212  1  0  0  0  0
184213  1  0  0  0  0
184214  1  0  0  0  0
184215  1  0  0  0  0
185216  1  0  0  0  0
185217  1  0  0  0  0
185218  1  0  0  0  0
186219  1  0  0  0  0
187220  1  0  0  0  0
189221  1  0  0  0  0
190222  1  0  0  0  0
M  END
