 xtb: 6.5.1 (b24c23e)
          07292218013D

264303  0     0  0            999 V2000
   43.7474    0.1413   -0.4106 Fe  0  0  0  0  0  0  0  0  0  0  0  0
   40.3632    0.1636   -0.3469 C   0  0  0  0  0  0  0  0  0  0  0  0
   41.0176    1.3784   -0.3460 C   0  0  0  0  0  0  0  0  0  0  0  0
   40.3503    2.6454   -0.3541 C   0  0  0  0  0  0  0  0  0  0  0  0
   41.3098    3.5907   -0.2169 C   0  0  0  0  0  0  0  0  0  0  0  0
   42.5621    2.8984   -0.1111 C   0  0  0  0  0  0  0  0  0  0  0  0
   42.3734    1.5494   -0.2425 N   0  0  0  0  0  0  0  0  0  0  0  0
   43.7780    3.5165    0.1624 C   0  0  0  0  0  0  0  0  0  0  0  0
   43.7927    4.9786    0.4035 C   0  0  0  0  0  0  0  0  0  0  0  0
   43.0636    5.5324    1.4521 C   0  0  0  0  0  0  0  0  0  0  0  0
   43.0798    6.9087    1.6748 C   0  0  0  0  0  0  0  0  0  0  0  0
   42.2831    7.4390    2.8099 C   0  0  0  0  0  0  0  0  0  0  0  0
   42.3732    8.7693    2.9521 O   0  0  0  0  0  0  0  0  0  0  0  0
   41.6119    6.7611    3.5448 O   0  0  0  0  0  0  0  0  0  0  0  0
   43.8264    7.7431    0.8430 C   0  0  0  0  0  0  0  0  0  0  0  0
   44.5516    7.1943   -0.2029 C   0  0  0  0  0  0  0  0  0  0  0  0
   44.5383    5.8241   -0.4219 C   0  0  0  0  0  0  0  0  0  0  0  0
   44.9787    2.8222    0.2171 C   0  0  0  0  0  0  0  0  0  0  0  0
   46.2381    3.4155    0.5563 C   0  0  0  0  0  0  0  0  0  0  0  0
   47.1822    2.4608    0.3727 C   0  0  0  0  0  0  0  0  0  0  0  0
   45.1511    1.4997   -0.1148 N   0  0  0  0  0  0  0  0  0  0  0  0
   46.4965    1.2862   -0.0667 C   0  0  0  0  0  0  0  0  0  0  0  0
   47.1517    0.1222   -0.4893 C   0  0  0  0  0  0  0  0  0  0  0  0
   46.4655   -1.0369   -0.8733 C   0  0  0  0  0  0  0  0  0  0  0  0
   47.1182   -2.2219   -1.3347 C   0  0  0  0  0  0  0  0  0  0  0  0
   46.1565   -3.1671   -1.4696 C   0  0  0  0  0  0  0  0  0  0  0  0
   44.9195   -2.5566   -1.0818 C   0  0  0  0  0  0  0  0  0  0  0  0
   45.1212   -1.2346   -0.7647 N   0  0  0  0  0  0  0  0  0  0  0  0
   43.7125   -3.2345   -0.9810 C   0  0  0  0  0  0  0  0  0  0  0  0
   43.6967   -4.6960   -1.2272 C   0  0  0  0  0  0  0  0  0  0  0  0
   44.4518   -5.5568   -0.4275 C   0  0  0  0  0  0  0  0  0  0  0  0
   44.4370   -6.9262   -0.6534 C   0  0  0  0  0  0  0  0  0  0  0  0
   43.6730   -7.4523   -1.6816 C   0  0  0  0  0  0  0  0  0  0  0  0
   42.9161   -6.6019   -2.4892 C   0  0  0  0  0  0  0  0  0  0  0  0
   42.1122   -7.2042   -3.5824 C   0  0  0  0  0  0  0  0  0  0  0  0
   41.4150   -6.3063   -4.2935 O   0  0  0  0  0  0  0  0  0  0  0  0
   42.0727   -8.3830   -3.8261 O   0  0  0  0  0  0  0  0  0  0  0  0
   42.9273   -5.2277   -2.2600 C   0  0  0  0  0  0  0  0  0  0  0  0
   42.5159   -2.5998   -0.6634 C   0  0  0  0  0  0  0  0  0  0  0  0
   41.2595   -3.2756   -0.5113 C   0  0  0  0  0  0  0  0  0  0  0  0
   40.3182   -2.3178   -0.3385 C   0  0  0  0  0  0  0  0  0  0  0  0
   41.0012   -1.0598   -0.3721 C   0  0  0  0  0  0  0  0  0  0  0  0
   42.3496   -1.2484   -0.5274 N   0  0  0  0  0  0  0  0  0  0  0  0
   39.2793    0.1707   -0.3260 H   0  0  0  0  0  0  0  0  0  0  0  0
   39.2841    2.7746   -0.4509 H   0  0  0  0  0  0  0  0  0  0  0  0
   41.1926    4.6618   -0.1892 H   0  0  0  0  0  0  0  0  0  0  0  0
   42.4881    4.8978    2.1170 H   0  0  0  0  0  0  0  0  0  0  0  0
   41.8280    9.0359    3.7102 H   0  0  0  0  0  0  0  0  0  0  0  0
   43.8356    8.8124    1.0162 H   0  0  0  0  0  0  0  0  0  0  0  0
   45.1314    7.8373   -0.8554 H   0  0  0  0  0  0  0  0  0  0  0  0
   45.0976    5.4026   -1.2495 H   0  0  0  0  0  0  0  0  0  0  0  0
   46.3724    4.4298    0.8954 H   0  0  0  0  0  0  0  0  0  0  0  0
   48.2484    2.5313    0.5163 H   0  0  0  0  0  0  0  0  0  0  0  0
   48.1764   -2.3059   -1.5227 H   0  0  0  0  0  0  0  0  0  0  0  0
   46.2647   -4.1857   -1.8051 H   0  0  0  0  0  0  0  0  0  0  0  0
   45.0411   -5.1476    0.3854 H   0  0  0  0  0  0  0  0  0  0  0  0
   45.0242   -7.5826   -0.0214 H   0  0  0  0  0  0  0  0  0  0  0  0
   43.6510   -8.5192   -1.8726 H   0  0  0  0  0  0  0  0  0  0  0  0
   40.9207   -6.7768   -4.9842 H   0  0  0  0  0  0  0  0  0  0  0  0
   42.3491   -4.5682   -2.8964 H   0  0  0  0  0  0  0  0  0  0  0  0
   41.1277   -4.3453   -0.5337 H   0  0  0  0  0  0  0  0  0  0  0  0
   39.2548   -2.4331   -0.2012 H   0  0  0  0  0  0  0  0  0  0  0  0
   91.5631    0.2027   -0.2257 Fe  0  0  0  0  0  0  0  0  0  0  0  0
   94.9478    0.1248   -0.1303 C   0  0  0  0  0  0  0  0  0  0  0  0
   94.2883   -1.0051   -0.5691 C   0  0  0  0  0  0  0  0  0  0  0  0
   94.9522   -2.1890   -1.0250 C   0  0  0  0  0  0  0  0  0  0  0  0
   93.9860   -3.1027   -1.2787 C   0  0  0  0  0  0  0  0  0  0  0  0
   92.7332   -2.4820   -0.9560 C   0  0  0  0  0  0  0  0  0  0  0  0
   92.9297   -1.1833   -0.5711 N   0  0  0  0  0  0  0  0  0  0  0  0
   91.5092   -3.1427   -0.9600 C   0  0  0  0  0  0  0  0  0  0  0  0
   91.4824   -4.5857   -1.2966 C   0  0  0  0  0  0  0  0  0  0  0  0
   92.1904   -5.5078   -0.5309 C   0  0  0  0  0  0  0  0  0  0  0  0
   92.1662   -6.8634   -0.8561 C   0  0  0  0  0  0  0  0  0  0  0  0
   92.9438   -7.7972   -0.0029 C   0  0  0  0  0  0  0  0  0  0  0  0
   92.8552   -9.0775   -0.3912 O   0  0  0  0  0  0  0  0  0  0  0  0
   93.6011   -7.4614    0.9487 O   0  0  0  0  0  0  0  0  0  0  0  0
   91.4307   -7.3061   -1.9555 C   0  0  0  0  0  0  0  0  0  0  0  0
   90.7241   -6.3900   -2.7188 C   0  0  0  0  0  0  0  0  0  0  0  0
   90.7469   -5.0412   -2.3937 C   0  0  0  0  0  0  0  0  0  0  0  0
   90.3117   -2.5106   -0.6542 C   0  0  0  0  0  0  0  0  0  0  0  0
   89.0487   -3.1815   -0.5648 C   0  0  0  0  0  0  0  0  0  0  0  0
   88.1124   -2.2255   -0.3514 C   0  0  0  0  0  0  0  0  0  0  0  0
   90.1490   -1.1616   -0.4487 N   0  0  0  0  0  0  0  0  0  0  0  0
   88.8058   -0.9764   -0.3063 C   0  0  0  0  0  0  0  0  0  0  0  0
   88.1559    0.2621   -0.2323 C   0  0  0  0  0  0  0  0  0  0  0  0
   88.8464    1.4794   -0.1726 C   0  0  0  0  0  0  0  0  0  0  0  0
   88.1955    2.7521   -0.1638 C   0  0  0  0  0  0  0  0  0  0  0  0
   89.1666    3.6837   -0.0062 C   0  0  0  0  0  0  0  0  0  0  0  0
   90.4072    2.9739    0.0972 C   0  0  0  0  0  0  0  0  0  0  0  0
   90.1962    1.6235   -0.0518 N   0  0  0  0  0  0  0  0  0  0  0  0
   91.6260    3.5735    0.3795 C   0  0  0  0  0  0  0  0  0  0  0  0
   91.6627    5.0365    0.6176 C   0  0  0  0  0  0  0  0  0  0  0  0
   90.9569    5.6030    1.6810 C   0  0  0  0  0  0  0  0  0  0  0  0
   90.9947    6.9726    1.9037 C   0  0  0  0  0  0  0  0  0  0  0  0
   91.7322    7.7926    1.0661 C   0  0  0  0  0  0  0  0  0  0  0  0
   92.4406    7.2380   -0.0011 C   0  0  0  0  0  0  0  0  0  0  0  0
   93.2175    8.1503   -0.8777 C   0  0  0  0  0  0  0  0  0  0  0  0
   93.8636    7.5206   -1.8697 O   0  0  0  0  0  0  0  0  0  0  0  0
   93.2774    9.3443   -0.7320 O   0  0  0  0  0  0  0  0  0  0  0  0
   92.4072    5.8627   -0.2216 C   0  0  0  0  0  0  0  0  0  0  0  0
   92.8189    2.8615    0.4529 C   0  0  0  0  0  0  0  0  0  0  0  0
   94.0796    3.4400    0.8189 C   0  0  0  0  0  0  0  0  0  0  0  0
   95.0103    2.4656    0.6873 C   0  0  0  0  0  0  0  0  0  0  0  0
   94.3174    1.2935    0.2439 C   0  0  0  0  0  0  0  0  0  0  0  0
   92.9724    1.5378    0.1440 N   0  0  0  0  0  0  0  0  0  0  0  0
   96.0309    0.0974   -0.0920 H   0  0  0  0  0  0  0  0  0  0  0  0
   96.0205   -2.2881   -1.1332 H   0  0  0  0  0  0  0  0  0  0  0  0
   94.0997   -4.1082   -1.6499 H   0  0  0  0  0  0  0  0  0  0  0  0
   92.7559   -5.1841    0.3360 H   0  0  0  0  0  0  0  0  0  0  0  0
   93.3889   -9.6201    0.2119 H   0  0  0  0  0  0  0  0  0  0  0  0
   91.4156   -8.3593   -2.2081 H   0  0  0  0  0  0  0  0  0  0  0  0
   90.1525   -6.7267   -3.5763 H   0  0  0  0  0  0  0  0  0  0  0  0
   90.2028   -4.3280   -3.0027 H   0  0  0  0  0  0  0  0  0  0  0  0
   88.9076   -4.2469   -0.6469 H   0  0  0  0  0  0  0  0  0  0  0  0
   87.0467   -2.3401   -0.2361 H   0  0  0  0  0  0  0  0  0  0  0  0
   87.1324    2.8983   -0.2674 H   0  0  0  0  0  0  0  0  0  0  0  0
   89.0623    4.7557    0.0353 H   0  0  0  0  0  0  0  0  0  0  0  0
   90.3888    4.9611    2.3449 H   0  0  0  0  0  0  0  0  0  0  0  0
   90.4462    7.3982    2.7362 H   0  0  0  0  0  0  0  0  0  0  0  0
   91.7710    8.8644    1.2247 H   0  0  0  0  0  0  0  0  0  0  0  0
   94.3429    8.1822   -2.3945 H   0  0  0  0  0  0  0  0  0  0  0  0
   92.9491    5.4349   -1.0569 H   0  0  0  0  0  0  0  0  0  0  0  0
   94.2202    4.4598    1.1390 H   0  0  0  0  0  0  0  0  0  0  0  0
   96.0729    2.5181    0.8636 H   0  0  0  0  0  0  0  0  0  0  0  0
   52.3429    0.1703   -0.7230 C   0  0  0  0  0  0  0  0  0  0  0  0
   51.1146    0.1453   -0.6519 C   0  0  0  0  0  0  0  0  0  0  0  0
   49.7757    0.1283   -0.5861 C   0  0  0  0  0  0  0  0  0  0  0  0
   48.5509    0.1211   -0.5357 C   0  0  0  0  0  0  0  0  0  0  0  0
   53.6796    0.2116   -0.8118 C   0  0  0  0  0  0  0  0  0  0  0  0
   54.9016    0.2594   -0.9030 C   0  0  0  0  0  0  0  0  0  0  0  0
   68.2745    0.3131   -0.6922 C   0  0  0  0  0  0  0  0  0  0  0  0
   67.0433    0.3077   -0.7051 C   0  0  0  0  0  0  0  0  0  0  0  0
   65.7048    0.3164   -0.7560 C   0  0  0  0  0  0  0  0  0  0  0  0
   64.4808    0.3350   -0.8363 C   0  0  0  0  0  0  0  0  0  0  0  0
   69.6136    0.3338   -0.7178 C   0  0  0  0  0  0  0  0  0  0  0  0
   70.8386    0.3670   -0.7743 C   0  0  0  0  0  0  0  0  0  0  0  0
   84.1918    0.3396   -0.3479 C   0  0  0  0  0  0  0  0  0  0  0  0
   82.9639    0.3627   -0.4274 C   0  0  0  0  0  0  0  0  0  0  0  0
   81.6285    0.3996   -0.5378 C   0  0  0  0  0  0  0  0  0  0  0  0
   80.4087    0.4276   -0.6605 C   0  0  0  0  0  0  0  0  0  0  0  0
   85.5308    0.3098   -0.2857 C   0  0  0  0  0  0  0  0  0  0  0  0
   86.7560    0.2864   -0.2484 C   0  0  0  0  0  0  0  0  0  0  0  0
   59.6925    0.4336   -1.1965 Fe  0  0  0  0  0  0  0  0  0  0  0  0
   56.2943    0.3235   -1.0160 C   0  0  0  0  0  0  0  0  0  0  0  0
   56.9591   -0.6879   -1.7249 C   0  0  0  0  0  0  0  0  0  0  0  0
   56.2829   -1.7219   -2.4425 C   0  0  0  0  0  0  0  0  0  0  0  0
   57.2435   -2.5116   -2.9822 C   0  0  0  0  0  0  0  0  0  0  0  0
   58.5026   -1.9785   -2.5547 C   0  0  0  0  0  0  0  0  0  0  0  0
   58.3094   -0.8284   -1.8275 N   0  0  0  0  0  0  0  0  0  0  0  0
   59.7252   -2.6110   -2.7415 C   0  0  0  0  0  0  0  0  0  0  0  0
   59.7576   -3.9087   -3.4565 C   0  0  0  0  0  0  0  0  0  0  0  0
   59.0543   -5.0082   -2.9732 C   0  0  0  0  0  0  0  0  0  0  0  0
   59.0934   -6.2254   -3.6521 C   0  0  0  0  0  0  0  0  0  0  0  0
   58.3222   -7.3615   -3.0860 C   0  0  0  0  0  0  0  0  0  0  0  0
   58.4334   -8.4916   -3.7983 O   0  0  0  0  0  0  0  0  0  0  0  0
   57.6536   -7.2971   -2.0867 O   0  0  0  0  0  0  0  0  0  0  0  0
   59.8383   -6.3488   -4.8247 C   0  0  0  0  0  0  0  0  0  0  0  0
   60.5413   -5.2556   -5.3064 C   0  0  0  0  0  0  0  0  0  0  0  0
   60.5059   -4.0456   -4.6283 C   0  0  0  0  0  0  0  0  0  0  0  0
   60.9218   -2.1095   -2.2415 C   0  0  0  0  0  0  0  0  0  0  0  0
   62.1615   -2.8263   -2.2554 C   0  0  0  0  0  0  0  0  0  0  0  0
   63.0920   -2.0078   -1.7057 C   0  0  0  0  0  0  0  0  0  0  0  0
   61.0920   -0.8743   -1.6690 N   0  0  0  0  0  0  0  0  0  0  0  0
   62.4205   -0.7901   -1.3760 C   0  0  0  0  0  0  0  0  0  0  0  0
   63.0885    0.3692   -0.9578 C   0  0  0  0  0  0  0  0  0  0  0  0
   62.4260    1.5874   -0.7428 C   0  0  0  0  0  0  0  0  0  0  0  0
   63.1055    2.8222   -0.5070 C   0  0  0  0  0  0  0  0  0  0  0  0
   62.1473    3.7664   -0.3396 C   0  0  0  0  0  0  0  0  0  0  0  0
   60.8859    3.0939   -0.4336 C   0  0  0  0  0  0  0  0  0  0  0  0
   61.0769    1.7652   -0.7314 N   0  0  0  0  0  0  0  0  0  0  0  0
   59.6623    3.6802   -0.1395 C   0  0  0  0  0  0  0  0  0  0  0  0
   59.6292    5.1057    0.2655 C   0  0  0  0  0  0  0  0  0  0  0  0
   58.9058    6.0301   -0.4914 C   0  0  0  0  0  0  0  0  0  0  0  0
   58.8684    7.3681   -0.1249 C   0  0  0  0  0  0  0  0  0  0  0  0
   59.5453    7.7976    1.0044 C   0  0  0  0  0  0  0  0  0  0  0  0
   60.2648    6.8816    1.7731 C   0  0  0  0  0  0  0  0  0  0  0  0
   60.9710    7.3809    2.9804 C   0  0  0  0  0  0  0  0  0  0  0  0
   61.6367    6.4263    3.6455 O   0  0  0  0  0  0  0  0  0  0  0  0
   60.9623    8.5285    3.3449 O   0  0  0  0  0  0  0  0  0  0  0  0
   60.3072    5.5391    1.4026 C   0  0  0  0  0  0  0  0  0  0  0  0
   58.4617    2.9776   -0.1565 C   0  0  0  0  0  0  0  0  0  0  0  0
   57.2190    3.5014    0.3244 C   0  0  0  0  0  0  0  0  0  0  0  0
   56.2873    2.5357    0.1302 C   0  0  0  0  0  0  0  0  0  0  0  0
   56.9610    1.4368   -0.4866 C   0  0  0  0  0  0  0  0  0  0  0  0
   58.2921    1.6990   -0.6222 N   0  0  0  0  0  0  0  0  0  0  0  0
   55.2120   -1.8117   -2.5265 H   0  0  0  0  0  0  0  0  0  0  0  0
   57.1178   -3.3809   -3.6066 H   0  0  0  0  0  0  0  0  0  0  0  0
   58.4832   -4.9360   -2.0541 H   0  0  0  0  0  0  0  0  0  0  0  0
   57.9042   -9.1820   -3.3665 H   0  0  0  0  0  0  0  0  0  0  0  0
   59.8650   -7.2948   -5.3518 H   0  0  0  0  0  0  0  0  0  0  0  0
   61.1219   -5.3443   -6.2176 H   0  0  0  0  0  0  0  0  0  0  0  0
   61.0505   -3.1913   -5.0145 H   0  0  0  0  0  0  0  0  0  0  0  0
   62.2906   -3.8309   -2.6239 H   0  0  0  0  0  0  0  0  0  0  0  0
   64.1417   -2.1933   -1.5451 H   0  0  0  0  0  0  0  0  0  0  0  0
   64.1769    2.9401   -0.4890 H   0  0  0  0  0  0  0  0  0  0  0  0
   62.2757    4.8216   -0.1617 H   0  0  0  0  0  0  0  0  0  0  0  0
   58.3823    5.6955   -1.3800 H   0  0  0  0  0  0  0  0  0  0  0  0
   58.3080    8.0756   -0.7252 H   0  0  0  0  0  0  0  0  0  0  0  0
   59.5253    8.8387    1.3062 H   0  0  0  0  0  0  0  0  0  0  0  0
   62.0663    6.8297    4.4173 H   0  0  0  0  0  0  0  0  0  0  0  0
   60.8531    4.8272    2.0104 H   0  0  0  0  0  0  0  0  0  0  0  0
   57.0887    4.4753    0.7674 H   0  0  0  0  0  0  0  0  0  0  0  0
   55.2350    2.5584    0.3634 H   0  0  0  0  0  0  0  0  0  0  0  0
   75.6269    0.5175   -1.0772 Fe  0  0  0  0  0  0  0  0  0  0  0  0
   72.2319    0.4170   -0.8768 C   0  0  0  0  0  0  0  0  0  0  0  0
   72.8953   -0.6391   -1.5201 C   0  0  0  0  0  0  0  0  0  0  0  0
   72.2171   -1.7150   -2.1721 C   0  0  0  0  0  0  0  0  0  0  0  0
   73.1761   -2.5301   -2.6752 C   0  0  0  0  0  0  0  0  0  0  0  0
   74.4370   -1.9703   -2.2881 C   0  0  0  0  0  0  0  0  0  0  0  0
   74.2445   -0.7818   -1.6238 N   0  0  0  0  0  0  0  0  0  0  0  0
   75.6603   -2.6069   -2.4480 C   0  0  0  0  0  0  0  0  0  0  0  0
   75.6989   -3.9336   -3.1072 C   0  0  0  0  0  0  0  0  0  0  0  0
   75.0024   -5.0175   -2.5811 C   0  0  0  0  0  0  0  0  0  0  0  0
   75.0470   -6.2595   -3.2134 C   0  0  0  0  0  0  0  0  0  0  0  0
   74.2831   -7.3775   -2.6036 C   0  0  0  0  0  0  0  0  0  0  0  0
   74.3989   -8.5330   -3.2733 O   0  0  0  0  0  0  0  0  0  0  0  0
   73.6151   -7.2792   -1.6065 O   0  0  0  0  0  0  0  0  0  0  0  0
   75.7906   -6.4235   -4.3818 C   0  0  0  0  0  0  0  0  0  0  0  0
   76.4880   -5.3461   -4.9054 C   0  0  0  0  0  0  0  0  0  0  0  0
   76.4473   -4.1116   -4.2735 C   0  0  0  0  0  0  0  0  0  0  0  0
   76.8562   -2.0797   -1.9699 C   0  0  0  0  0  0  0  0  0  0  0  0
   78.0930   -2.8000   -1.9319 C   0  0  0  0  0  0  0  0  0  0  0  0
   79.0194   -1.9577   -1.4112 C   0  0  0  0  0  0  0  0  0  0  0  0
   77.0241   -0.8172   -1.4626 N   0  0  0  0  0  0  0  0  0  0  0  0
   78.3499   -0.7210   -1.1572 C   0  0  0  0  0  0  0  0  0  0  0  0
   79.0187    0.4620   -0.8149 C   0  0  0  0  0  0  0  0  0  0  0  0
   78.3601    1.6962   -0.7066 C   0  0  0  0  0  0  0  0  0  0  0  0
   79.0407    2.9447   -0.5689 C   0  0  0  0  0  0  0  0  0  0  0  0
   78.0835    3.9006   -0.4769 C   0  0  0  0  0  0  0  0  0  0  0  0
   76.8214    3.2241   -0.5149 C   0  0  0  0  0  0  0  0  0  0  0  0
   77.0109    1.8769   -0.7105 N   0  0  0  0  0  0  0  0  0  0  0  0
   75.5985    3.8294   -0.2535 C   0  0  0  0  0  0  0  0  0  0  0  0
   75.5663    5.2801    0.0482 C   0  0  0  0  0  0  0  0  0  0  0  0
   74.8252    6.1452   -0.7601 C   0  0  0  0  0  0  0  0  0  0  0  0
   74.7882    7.5060   -0.4907 C   0  0  0  0  0  0  0  0  0  0  0  0
   75.4839    8.0185    0.5916 C   0  0  0  0  0  0  0  0  0  0  0  0
   76.2216    7.1629    1.4110 C   0  0  0  0  0  0  0  0  0  0  0  0
   76.9493    7.7508    2.5644 C   0  0  0  0  0  0  0  0  0  0  0  0
   77.6334    6.8494    3.2829 O   0  0  0  0  0  0  0  0  0  0  0  0
   76.9417    8.9217    2.8453 O   0  0  0  0  0  0  0  0  0  0  0  0
   76.2627    5.7970    1.1384 C   0  0  0  0  0  0  0  0  0  0  0  0
   74.4001    3.1254   -0.2084 C   0  0  0  0  0  0  0  0  0  0  0  0
   73.1597    3.6775    0.2471 C   0  0  0  0  0  0  0  0  0  0  0  0
   72.2286    2.6995    0.1248 C   0  0  0  0  0  0  0  0  0  0  0  0
   72.9000    1.5629   -0.4230 C   0  0  0  0  0  0  0  0  0  0  0  0
   74.2292    1.8173   -0.5849 N   0  0  0  0  0  0  0  0  0  0  0  0
   71.1459   -1.8135   -2.2418 H   0  0  0  0  0  0  0  0  0  0  0  0
   73.0482   -3.4336   -3.2485 H   0  0  0  0  0  0  0  0  0  0  0  0
   74.4326   -4.9137   -1.6642 H   0  0  0  0  0  0  0  0  0  0  0  0
   73.8743   -9.2094   -2.8147 H   0  0  0  0  0  0  0  0  0  0  0  0
   75.8210   -7.3885   -4.8730 H   0  0  0  0  0  0  0  0  0  0  0  0
   77.0679   -5.4664   -5.8135 H   0  0  0  0  0  0  0  0  0  0  0  0
   76.9877   -3.2699   -4.6921 H   0  0  0  0  0  0  0  0  0  0  0  0
   78.2225   -3.8227   -2.2469 H   0  0  0  0  0  0  0  0  0  0  0  0
   80.0664   -2.1383   -1.2284 H   0  0  0  0  0  0  0  0  0  0  0  0
   80.1123    3.0623   -0.5607 H   0  0  0  0  0  0  0  0  0  0  0  0
   78.2135    4.9663   -0.3839 H   0  0  0  0  0  0  0  0  0  0  0  0
   74.2875    5.7455   -1.6127 H   0  0  0  0  0  0  0  0  0  0  0  0
   74.2136    8.1663   -1.1301 H   0  0  0  0  0  0  0  0  0  0  0  0
   75.4651    9.0787    0.8173 H   0  0  0  0  0  0  0  0  0  0  0  0
   78.0769    7.3095    4.0140 H   0  0  0  0  0  0  0  0  0  0  0  0
   76.8220    5.1330    1.7866 H   0  0  0  0  0  0  0  0  0  0  0  0
   73.0307    4.6784    0.6257 H   0  0  0  0  0  0  0  0  0  0  0  0
   71.1783    2.7356    0.3652 H   0  0  0  0  0  0  0  0  0  0  0  0
  2  3  4  0  0  0  0
  3  4  4  0  0  0  0
  4  5  2  0  0  0  0
  5  6  4  0  0  0  0
  1  7  1  0  0  0  0
  3  7  4  0  0  0  0
  6  7  4  0  0  0  0
  6  8  4  0  0  0  0
  8  9  1  0  0  0  0
  9 10  4  0  0  0  0
 10 11  4  0  0  0  0
 11 12  1  0  0  0  0
 12 13  4  0  0  0  0
 12 14  2  0  0  0  0
 11 15  4  0  0  0  0
 15 16  4  0  0  0  0
  9 17  4  0  0  0  0
 16 17  4  0  0  0  0
  8 18  4  0  0  0  0
 18 19  4  0  0  0  0
 19 20  2  0  0  0  0
  1 21  1  0  0  0  0
 18 21  4  0  0  0  0
 20 22  4  0  0  0  0
 21 22  4  0  0  0  0
 22 23  4  0  0  0  0
 23 24  4  0  0  0  0
 24 25  4  0  0  0  0
 25 26  2  0  0  0  0
 26 27  4  0  0  0  0
  1 28  1  0  0  0  0
 24 28  4  0  0  0  0
 27 28  4  0  0  0  0
 27 29  4  0  0  0  0
 29 30  1  0  0  0  0
 30 31  4  0  0  0  0
 31 32  4  0  0  0  0
 32 33  4  0  0  0  0
 33 34  4  0  0  0  0
 34 35  1  0  0  0  0
 35 36  4  0  0  0  0
 35 37  2  0  0  0  0
 30 38  4  0  0  0  0
 34 38  4  0  0  0  0
 29 39  4  0  0  0  0
 39 40  4  0  0  0  0
 40 41  2  0  0  0  0
  2 42  4  0  0  0  0
 41 42  4  0  0  0  0
  1 43  1  0  0  0  0
 39 43  4  0  0  0  0
 42 43  4  0  0  0  0
  2 44  1  0  0  0  0
  4 45  1  0  0  0  0
  5 46  1  0  0  0  0
 10 47  1  0  0  0  0
 13 48  1  0  0  0  0
 15 49  1  0  0  0  0
 16 50  1  0  0  0  0
 17 51  1  0  0  0  0
 19 52  1  0  0  0  0
 20 53  1  0  0  0  0
 25 54  1  0  0  0  0
 26 55  1  0  0  0  0
 31 56  1  0  0  0  0
 32 57  1  0  0  0  0
 33 58  1  0  0  0  0
 36 59  1  0  0  0  0
 38 60  1  0  0  0  0
 40 61  1  0  0  0  0
 41 62  1  0  0  0  0
 64 65  4  0  0  0  0
 65 66  4  0  0  0  0
 66 67  2  0  0  0  0
 67 68  4  0  0  0  0
 63 69  1  0  0  0  0
 65 69  4  0  0  0  0
 68 69  4  0  0  0  0
 68 70  4  0  0  0  0
 70 71  1  0  0  0  0
 71 72  4  0  0  0  0
 72 73  4  0  0  0  0
 73 74  1  0  0  0  0
 74 75  4  0  0  0  0
 74 76  2  0  0  0  0
 73 77  4  0  0  0  0
 77 78  4  0  0  0  0
 71 79  4  0  0  0  0
 78 79  4  0  0  0  0
 70 80  4  0  0  0  0
 80 81  4  0  0  0  0
 81 82  2  0  0  0  0
 63 83  1  0  0  0  0
 80 83  4  0  0  0  0
 82 84  4  0  0  0  0
 83 84  4  0  0  0  0
 84 85  4  0  0  0  0
 85 86  4  0  0  0  0
 86 87  4  0  0  0  0
 87 88  2  0  0  0  0
 88 89  4  0  0  0  0
 63 90  1  0  0  0  0
 86 90  4  0  0  0  0
 89 90  4  0  0  0  0
 89 91  4  0  0  0  0
 91 92  1  0  0  0  0
 92 93  4  0  0  0  0
 93 94  4  0  0  0  0
 94 95  4  0  0  0  0
 95 96  4  0  0  0  0
 96 97  1  0  0  0  0
 97 98  4  0  0  0  0
 97 99  2  0  0  0  0
 92100  4  0  0  0  0
 96100  4  0  0  0  0
 91101  4  0  0  0  0
101102  4  0  0  0  0
102103  2  0  0  0  0
 64104  4  0  0  0  0
103104  4  0  0  0  0
 63105  1  0  0  0  0
101105  4  0  0  0  0
104105  4  0  0  0  0
 64106  1  0  0  0  0
 66107  1  0  0  0  0
 67108  1  0  0  0  0
 72109  1  0  0  0  0
 75110  1  0  0  0  0
 77111  1  0  0  0  0
 78112  1  0  0  0  0
 79113  1  0  0  0  0
 81114  1  0  0  0  0
 82115  1  0  0  0  0
 87116  1  0  0  0  0
 88117  1  0  0  0  0
 93118  1  0  0  0  0
 94119  1  0  0  0  0
 95120  1  0  0  0  0
 98121  1  0  0  0  0
100122  1  0  0  0  0
102123  1  0  0  0  0
103124  1  0  0  0  0
125126  3  0  0  0  0
126127  4  0  0  0  0
 23128  4  0  0  0  0
127128  3  0  0  0  0
125129  4  0  0  0  0
129130  3  0  0  0  0
131132  3  0  0  0  0
132133  4  0  0  0  0
133134  3  0  0  0  0
131135  4  0  0  0  0
135136  3  0  0  0  0
137138  3  0  0  0  0
138139  4  0  0  0  0
139140  3  0  0  0  0
137141  4  0  0  0  0
 85142  4  0  0  0  0
141142  3  0  0  0  0
130144  4  0  0  0  0
144145  4  0  0  0  0
145146  4  0  0  0  0
146147  2  0  0  0  0
147148  4  0  0  0  0
143149  1  0  0  0  0
145149  4  0  0  0  0
148149  4  0  0  0  0
148150  4  0  0  0  0
150151  1  0  0  0  0
151152  4  0  0  0  0
152153  4  0  0  0  0
153154  1  0  0  0  0
154155  4  0  0  0  0
154156  2  0  0  0  0
153157  4  0  0  0  0
157158  4  0  0  0  0
151159  4  0  0  0  0
158159  4  0  0  0  0
150160  4  0  0  0  0
160161  4  0  0  0  0
161162  2  0  0  0  0
143163  1  0  0  0  0
160163  4  0  0  0  0
162164  4  0  0  0  0
163164  4  0  0  0  0
134165  4  0  0  0  0
164165  4  0  0  0  0
165166  4  0  0  0  0
166167  4  0  0  0  0
167168  2  0  0  0  0
168169  4  0  0  0  0
143170  1  0  0  0  0
166170  4  0  0  0  0
169170  4  0  0  0  0
169171  4  0  0  0  0
171172  1  0  0  0  0
172173  4  0  0  0  0
173174  4  0  0  0  0
174175  4  0  0  0  0
175176  4  0  0  0  0
176177  1  0  0  0  0
177178  4  0  0  0  0
177179  2  0  0  0  0
172180  4  0  0  0  0
176180  4  0  0  0  0
171181  4  0  0  0  0
181182  4  0  0  0  0
182183  2  0  0  0  0
144184  4  0  0  0  0
183184  4  0  0  0  0
143185  1  0  0  0  0
181185  4  0  0  0  0
184185  4  0  0  0  0
146186  1  0  0  0  0
147187  1  0  0  0  0
152188  1  0  0  0  0
155189  1  0  0  0  0
157190  1  0  0  0  0
158191  1  0  0  0  0
159192  1  0  0  0  0
161193  1  0  0  0  0
162194  1  0  0  0  0
167195  1  0  0  0  0
168196  1  0  0  0  0
173197  1  0  0  0  0
174198  1  0  0  0  0
175199  1  0  0  0  0
178200  1  0  0  0  0
180201  1  0  0  0  0
182202  1  0  0  0  0
183203  1  0  0  0  0
136205  4  0  0  0  0
205206  4  0  0  0  0
206207  4  0  0  0  0
207208  2  0  0  0  0
208209  4  0  0  0  0
204210  1  0  0  0  0
206210  4  0  0  0  0
209210  4  0  0  0  0
209211  4  0  0  0  0
211212  1  0  0  0  0
212213  4  0  0  0  0
213214  4  0  0  0  0
214215  1  0  0  0  0
215216  4  0  0  0  0
215217  2  0  0  0  0
214218  4  0  0  0  0
218219  4  0  0  0  0
212220  4  0  0  0  0
219220  4  0  0  0  0
211221  4  0  0  0  0
221222  4  0  0  0  0
222223  2  0  0  0  0
204224  1  0  0  0  0
221224  4  0  0  0  0
223225  4  0  0  0  0
224225  4  0  0  0  0
140226  4  0  0  0  0
225226  4  0  0  0  0
226227  4  0  0  0  0
227228  4  0  0  0  0
228229  2  0  0  0  0
229230  4  0  0  0  0
204231  1  0  0  0  0
227231  4  0  0  0  0
230231  4  0  0  0  0
230232  4  0  0  0  0
232233  1  0  0  0  0
233234  4  0  0  0  0
234235  4  0  0  0  0
235236  4  0  0  0  0
236237  4  0  0  0  0
237238  1  0  0  0  0
238239  4  0  0  0  0
238240  2  0  0  0  0
233241  4  0  0  0  0
237241  4  0  0  0  0
232242  4  0  0  0  0
242243  4  0  0  0  0
243244  2  0  0  0  0
205245  4  0  0  0  0
244245  4  0  0  0  0
204246  1  0  0  0  0
242246  4  0  0  0  0
245246  4  0  0  0  0
207247  1  0  0  0  0
208248  1  0  0  0  0
213249  1  0  0  0  0
216250  1  0  0  0  0
218251  1  0  0  0  0
219252  1  0  0  0  0
220253  1  0  0  0  0
222254  1  0  0  0  0
223255  1  0  0  0  0
228256  1  0  0  0  0
229257  1  0  0  0  0
234258  1  0  0  0  0
235259  1  0  0  0  0
236260  1  0  0  0  0
239261  1  0  0  0  0
241262  1  0  0  0  0
243263  1  0  0  0  0
244264  1  0  0  0  0
M  END
