 xtb: 6.5.1 (b24c23e)
          07302209213D

126145  0     0  0            999 V2000
   17.2555    0.0552   -0.0277 Cu  0  0  0  0  0  0  0  0  0  0  0  0
   13.8480    0.0950   -0.1008 C   0  0  0  0  0  0  0  0  0  0  0  0
   14.4865    1.3252   -0.0542 C   0  0  0  0  0  0  0  0  0  0  0  0
   13.8149    2.5911    0.0214 C   0  0  0  0  0  0  0  0  0  0  0  0
   14.7761    3.5468    0.0553 C   0  0  0  0  0  0  0  0  0  0  0  0
   16.0448    2.8735   -0.0136 C   0  0  0  0  0  0  0  0  0  0  0  0
   15.8375    1.5249   -0.0658 N   0  0  0  0  0  0  0  0  0  0  0  0
   17.2920    3.5016   -0.0224 C   0  0  0  0  0  0  0  0  0  0  0  0
   17.3166    4.9859    0.0134 C   0  0  0  0  0  0  0  0  0  0  0  0
   16.7284    5.7298   -1.0095 C   0  0  0  0  0  0  0  0  0  0  0  0
   16.7529    7.1190   -0.9636 C   0  0  0  0  0  0  0  0  0  0  0  0
   16.1904    7.8522   -1.9556 O   0  0  0  0  0  0  0  0  0  0  0  0
   17.3602    7.7692    0.1117 C   0  0  0  0  0  0  0  0  0  0  0  0
   17.3639    9.1396    0.1328 O   0  0  0  0  0  0  0  0  0  0  0  0
   17.9465    7.0265    1.1334 C   0  0  0  0  0  0  0  0  0  0  0  0
   18.5205    7.7342    2.1567 O   0  0  0  0  0  0  0  0  0  0  0  0
   17.9308    5.6383    1.0863 C   0  0  0  0  0  0  0  0  0  0  0  0
   18.5221    2.8402   -0.0543 C   0  0  0  0  0  0  0  0  0  0  0  0
   19.7961    3.4901   -0.1688 C   0  0  0  0  0  0  0  0  0  0  0  0
   20.7406    2.5157   -0.1630 C   0  0  0  0  0  0  0  0  0  0  0  0
   18.7116    1.4848    0.0022 N   0  0  0  0  0  0  0  0  0  0  0  0
   20.0553    1.2651   -0.0423 C   0  0  0  0  0  0  0  0  0  0  0  0
   20.6924    0.0133    0.0333 C   0  0  0  0  0  0  0  0  0  0  0  0
   20.0252   -1.2233    0.0949 C   0  0  0  0  0  0  0  0  0  0  0  0
   20.6810   -2.4929    0.1781 C   0  0  0  0  0  0  0  0  0  0  0  0
   19.7143   -3.4446    0.1556 C   0  0  0  0  0  0  0  0  0  0  0  0
   18.4547   -2.7619    0.0754 C   0  0  0  0  0  0  0  0  0  0  0  0
   18.6767   -1.4101    0.0432 N   0  0  0  0  0  0  0  0  0  0  0  0
   17.2106   -3.3910   -0.0029 C   0  0  0  0  0  0  0  0  0  0  0  0
   17.1912   -4.8775    0.0014 C   0  0  0  0  0  0  0  0  0  0  0  0
   17.6317   -5.5835    1.1205 C   0  0  0  0  0  0  0  0  0  0  0  0
   17.6104   -6.9735    1.1204 C   0  0  0  0  0  0  0  0  0  0  0  0
   18.0307   -7.6705    2.2048 O   0  0  0  0  0  0  0  0  0  0  0  0
   17.1536   -7.6620   -0.0044 C   0  0  0  0  0  0  0  0  0  0  0  0
   17.1480   -9.0325    0.0230 O   0  0  0  0  0  0  0  0  0  0  0  0
   16.7158   -6.9566   -1.1221 C   0  0  0  0  0  0  0  0  0  0  0  0
   16.2848   -7.7010   -2.1892 O   0  0  0  0  0  0  0  0  0  0  0  0
   16.7290   -5.5672   -1.1223 C   0  0  0  0  0  0  0  0  0  0  0  0
   15.9812   -2.7337   -0.0844 C   0  0  0  0  0  0  0  0  0  0  0  0
   14.6974   -3.3805   -0.1188 C   0  0  0  0  0  0  0  0  0  0  0  0
   13.7583   -2.4025   -0.1456 C   0  0  0  0  0  0  0  0  0  0  0  0
   14.4584   -1.1502   -0.1217 C   0  0  0  0  0  0  0  0  0  0  0  0
   15.8042   -1.3800   -0.0867 N   0  0  0  0  0  0  0  0  0  0  0  0
   12.7630    0.1075   -0.1078 H   0  0  0  0  0  0  0  0  0  0  0  0
   12.7441    2.7173    0.0528 H   0  0  0  0  0  0  0  0  0  0  0  0
   14.6447    4.6142    0.1297 H   0  0  0  0  0  0  0  0  0  0  0  0
   16.2671    5.2365   -1.8552 H   0  0  0  0  0  0  0  0  0  0  0  0
   16.3093    8.7928   -1.7434 H   0  0  0  0  0  0  0  0  0  0  0  0
   17.8215    9.4239    0.9400 H   0  0  0  0  0  0  0  0  0  0  0  0
   18.9016    7.1385    2.8151 H   0  0  0  0  0  0  0  0  0  0  0  0
   18.3777    5.0660    1.8908 H   0  0  0  0  0  0  0  0  0  0  0  0
   19.9451    4.5536   -0.2633 H   0  0  0  0  0  0  0  0  0  0  0  0
   21.8086    2.6280   -0.2472 H   0  0  0  0  0  0  0  0  0  0  0  0
   21.7468   -2.6329    0.2470 H   0  0  0  0  0  0  0  0  0  0  0  0
   19.8409   -4.5147    0.1844 H   0  0  0  0  0  0  0  0  0  0  0  0
   17.9760   -5.0593    2.0027 H   0  0  0  0  0  0  0  0  0  0  0  0
   17.9363   -8.6180    2.0122 H   0  0  0  0  0  0  0  0  0  0  0  0
   16.8041   -9.3462   -0.8285 H   0  0  0  0  0  0  0  0  0  0  0  0
   16.0068   -7.1292   -2.9167 H   0  0  0  0  0  0  0  0  0  0  0  0
   16.3980   -5.0244   -2.0000 H   0  0  0  0  0  0  0  0  0  0  0  0
   14.5414   -4.4473   -0.1091 H   0  0  0  0  0  0  0  0  0  0  0  0
   12.6849   -2.5058   -0.1713 H   0  0  0  0  0  0  0  0  0  0  0  0
   28.1701   -0.0517   -0.0341 Cu  0  0  0  0  0  0  0  0  0  0  0  0
   31.5775   -0.0837   -0.1105 C   0  0  0  0  0  0  0  0  0  0  0  0
   30.9388   -1.3111   -0.2038 C   0  0  0  0  0  0  0  0  0  0  0  0
   31.6102   -2.5775   -0.2722 C   0  0  0  0  0  0  0  0  0  0  0  0
   30.6487   -3.5307   -0.3472 C   0  0  0  0  0  0  0  0  0  0  0  0
   29.3802   -2.8537   -0.3396 C   0  0  0  0  0  0  0  0  0  0  0  0
   29.5878   -1.5079   -0.2383 N   0  0  0  0  0  0  0  0  0  0  0  0
   28.1329   -3.4765   -0.4197 C   0  0  0  0  0  0  0  0  0  0  0  0
   28.1079   -4.9553   -0.5522 C   0  0  0  0  0  0  0  0  0  0  0  0
   28.6960   -5.5788   -1.6526 C   0  0  0  0  0  0  0  0  0  0  0  0
   28.6711   -6.9642   -1.7643 C   0  0  0  0  0  0  0  0  0  0  0  0
   29.2335   -7.5807   -2.8328 O   0  0  0  0  0  0  0  0  0  0  0  0
   28.0633   -7.7318   -0.7696 C   0  0  0  0  0  0  0  0  0  0  0  0
   28.0591   -9.0957   -0.9038 O   0  0  0  0  0  0  0  0  0  0  0  0
   27.4771   -7.1093    0.3295 C   0  0  0  0  0  0  0  0  0  0  0  0
   26.9026   -7.9281    1.2661 O   0  0  0  0  0  0  0  0  0  0  0  0
   27.4932   -5.7247    0.4399 C   0  0  0  0  0  0  0  0  0  0  0  0
   26.9029   -2.8154   -0.3764 C   0  0  0  0  0  0  0  0  0  0  0  0
   25.6288   -3.4479   -0.5638 C   0  0  0  0  0  0  0  0  0  0  0  0
   24.6844   -2.4803   -0.4474 C   0  0  0  0  0  0  0  0  0  0  0  0
   26.7137   -1.4751   -0.1664 N   0  0  0  0  0  0  0  0  0  0  0  0
   25.3700   -1.2516   -0.1856 C   0  0  0  0  0  0  0  0  0  0  0  0
   24.7332   -0.0163    0.0315 C   0  0  0  0  0  0  0  0  0  0  0  0
   25.4006    1.2052    0.2328 C   0  0  0  0  0  0  0  0  0  0  0  0
   24.7451    2.4574    0.4592 C   0  0  0  0  0  0  0  0  0  0  0  0
   25.7119    3.4053    0.5445 C   0  0  0  0  0  0  0  0  0  0  0  0
   26.9714    2.7359    0.3874 C   0  0  0  0  0  0  0  0  0  0  0  0
   26.7491    1.3964    0.2024 N   0  0  0  0  0  0  0  0  0  0  0  0
   28.2156    3.3695    0.3810 C   0  0  0  0  0  0  0  0  0  0  0  0
   28.2353    4.8459    0.5539 C   0  0  0  0  0  0  0  0  0  0  0  0
   27.7949    5.4204    1.7458 C   0  0  0  0  0  0  0  0  0  0  0  0
   27.8166    6.8014    1.9035 C   0  0  0  0  0  0  0  0  0  0  0  0
   27.3964    7.3710    3.0600 O   0  0  0  0  0  0  0  0  0  0  0  0
   28.2739    7.6130    0.8643 C   0  0  0  0  0  0  0  0  0  0  0  0
   28.2800    8.9716    1.0471 O   0  0  0  0  0  0  0  0  0  0  0  0
   28.7116    7.0390   -0.3263 C   0  0  0  0  0  0  0  0  0  0  0  0
   29.1431    7.8996   -1.3019 O   0  0  0  0  0  0  0  0  0  0  0  0
   28.6980    5.6586   -0.4843 C   0  0  0  0  0  0  0  0  0  0  0  0
   29.4449    2.7254    0.2256 C   0  0  0  0  0  0  0  0  0  0  0  0
   30.7288    3.3716    0.2650 C   0  0  0  0  0  0  0  0  0  0  0  0
   31.6677    2.4027    0.1279 C   0  0  0  0  0  0  0  0  0  0  0  0
   30.9674    1.1559    0.0096 C   0  0  0  0  0  0  0  0  0  0  0  0
   29.6217    1.3807    0.0701 N   0  0  0  0  0  0  0  0  0  0  0  0
   32.6626   -0.0956   -0.1185 H   0  0  0  0  0  0  0  0  0  0  0  0
   32.6809   -2.7067   -0.2551 H   0  0  0  0  0  0  0  0  0  0  0  0
   30.7799   -4.5998   -0.3943 H   0  0  0  0  0  0  0  0  0  0  0  0
   29.1576   -4.9931   -2.4370 H   0  0  0  0  0  0  0  0  0  0  0  0
   29.1142   -8.5391   -2.7285 H   0  0  0  0  0  0  0  0  0  0  0  0
   27.6013   -9.4694   -0.1340 H   0  0  0  0  0  0  0  0  0  0  0  0
   26.5216   -7.4106    1.9876 H   0  0  0  0  0  0  0  0  0  0  0  0
   27.0464   -5.2470    1.3040 H   0  0  0  0  0  0  0  0  0  0  0  0
   25.4796   -4.4937   -0.7784 H   0  0  0  0  0  0  0  0  0  0  0  0
   23.6164   -2.5821   -0.5438 H   0  0  0  0  0  0  0  0  0  0  0  0
   23.6793    2.5888    0.5435 H   0  0  0  0  0  0  0  0  0  0  0  0
   25.5855    4.4652    0.6942 H   0  0  0  0  0  0  0  0  0  0  0  0
   27.4503    4.7996    2.5626 H   0  0  0  0  0  0  0  0  0  0  0  0
   27.4911    8.3342    2.9762 H   0  0  0  0  0  0  0  0  0  0  0  0
   28.6242    9.3799    0.2368 H   0  0  0  0  0  0  0  0  0  0  0  0
   29.4210    7.4141   -2.0896 H   0  0  0  0  0  0  0  0  0  0  0  0
   29.0289    5.2189   -1.4179 H   0  0  0  0  0  0  0  0  0  0  0  0
   30.8851    4.4305    0.3955 H   0  0  0  0  0  0  0  0  0  0  0  0
   32.7412    2.5080    0.1143 H   0  0  0  0  0  0  0  0  0  0  0  0
   22.1041   -0.0011    0.0359 C   0  0  0  0  0  0  0  0  0  0  0  0
   23.3215   -0.0020    0.0360 C   0  0  0  0  0  0  0  0  0  0  0  0
  2  3  4  0  0  0  0
  3  4  1  0  0  0  0
  4  5  2  0  0  0  0
  5  6  4  0  0  0  0
  1  7  1  0  0  0  0
  3  7  4  0  0  0  0
  6  7  4  0  0  0  0
  6  8  4  0  0  0  0
  8  9  1  0  0  0  0
  9 10  4  0  0  0  0
 10 11  4  0  0  0  0
 11 12  1  0  0  0  0
 11 13  4  0  0  0  0
 13 14  1  0  0  0  0
 13 15  4  0  0  0  0
 15 16  1  0  0  0  0
  9 17  4  0  0  0  0
 15 17  4  0  0  0  0
  8 18  4  0  0  0  0
 18 19  4  0  0  0  0
 19 20  2  0  0  0  0
  1 21  1  0  0  0  0
 18 21  4  0  0  0  0
 20 22  4  0  0  0  0
 21 22  4  0  0  0  0
 22 23  4  0  0  0  0
 23 24  4  0  0  0  0
 24 25  4  0  0  0  0
 25 26  2  0  0  0  0
 26 27  4  0  0  0  0
  1 28  1  0  0  0  0
 24 28  4  0  0  0  0
 27 28  4  0  0  0  0
 27 29  4  0  0  0  0
 29 30  1  0  0  0  0
 30 31  4  0  0  0  0
 31 32  4  0  0  0  0
 32 33  1  0  0  0  0
 32 34  4  0  0  0  0
 34 35  1  0  0  0  0
 34 36  4  0  0  0  0
 36 37  1  0  0  0  0
 30 38  4  0  0  0  0
 36 38  4  0  0  0  0
 29 39  4  0  0  0  0
 39 40  4  0  0  0  0
 40 41  2  0  0  0  0
  2 42  4  0  0  0  0
 41 42  1  0  0  0  0
  1 43  1  0  0  0  0
 39 43  4  0  0  0  0
 42 43  4  0  0  0  0
  2 44  1  0  0  0  0
  4 45  1  0  0  0  0
  5 46  1  0  0  0  0
 10 47  1  0  0  0  0
 12 48  1  0  0  0  0
 14 49  1  0  0  0  0
 16 50  1  0  0  0  0
 17 51  1  0  0  0  0
 19 52  1  0  0  0  0
 20 53  1  0  0  0  0
 25 54  1  0  0  0  0
 26 55  1  0  0  0  0
 31 56  1  0  0  0  0
 33 57  1  0  0  0  0
 35 58  1  0  0  0  0
 37 59  1  0  0  0  0
 38 60  1  0  0  0  0
 40 61  1  0  0  0  0
 41 62  1  0  0  0  0
 64 65  4  0  0  0  0
 65 66  1  0  0  0  0
 66 67  2  0  0  0  0
 67 68  4  0  0  0  0
 63 69  1  0  0  0  0
 65 69  4  0  0  0  0
 68 69  4  0  0  0  0
 68 70  4  0  0  0  0
 70 71  1  0  0  0  0
 71 72  4  0  0  0  0
 72 73  4  0  0  0  0
 73 74  1  0  0  0  0
 73 75  4  0  0  0  0
 75 76  1  0  0  0  0
 75 77  4  0  0  0  0
 77 78  1  0  0  0  0
 71 79  4  0  0  0  0
 77 79  4  0  0  0  0
 70 80  4  0  0  0  0
 80 81  4  0  0  0  0
 81 82  2  0  0  0  0
 63 83  1  0  0  0  0
 80 83  4  0  0  0  0
 82 84  4  0  0  0  0
 83 84  4  0  0  0  0
 84 85  4  0  0  0  0
 85 86  4  0  0  0  0
 86 87  4  0  0  0  0
 87 88  2  0  0  0  0
 88 89  4  0  0  0  0
 63 90  1  0  0  0  0
 86 90  4  0  0  0  0
 89 90  4  0  0  0  0
 89 91  4  0  0  0  0
 91 92  1  0  0  0  0
 92 93  4  0  0  0  0
 93 94  4  0  0  0  0
 94 95  1  0  0  0  0
 94 96  4  0  0  0  0
 96 97  1  0  0  0  0
 96 98  4  0  0  0  0
 98 99  1  0  0  0  0
 92100  4  0  0  0  0
 98100  4  0  0  0  0
 91101  4  0  0  0  0
101102  4  0  0  0  0
102103  2  0  0  0  0
 64104  4  0  0  0  0
103104  1  0  0  0  0
 63105  1  0  0  0  0
101105  4  0  0  0  0
104105  4  0  0  0  0
 64106  1  0  0  0  0
 66107  1  0  0  0  0
 67108  1  0  0  0  0
 72109  1  0  0  0  0
 74110  1  0  0  0  0
 76111  1  0  0  0  0
 78112  1  0  0  0  0
 79113  1  0  0  0  0
 81114  1  0  0  0  0
 82115  1  0  0  0  0
 87116  1  0  0  0  0
 88117  1  0  0  0  0
 93118  1  0  0  0  0
 95119  1  0  0  0  0
 97120  1  0  0  0  0
 99121  1  0  0  0  0
100122  1  0  0  0  0
102123  1  0  0  0  0
103124  1  0  0  0  0
 23125  4  0  0  0  0
 85126  4  0  0  0  0
125126  3  0  0  0  0
M  END
