 xtb: 6.5.1 (b24c23e)
          07302208283D

128151  0     0  0            999 V2000
   13.3718   -0.0226   -0.0160 Cu  0  0  0  0  0  0  0  0  0  0  0  0
    9.9685   -0.0429   -0.1494 C   0  0  0  0  0  0  0  0  0  0  0  0
   10.6064   -1.2621   -0.3207 C   0  0  0  0  0  0  0  0  0  0  0  0
    9.9340   -2.5165   -0.5048 C   0  0  0  0  0  0  0  0  0  0  0  0
   10.8947   -3.4639   -0.6361 C   0  0  0  0  0  0  0  0  0  0  0  0
   12.1642   -2.7934   -0.5461 C   0  0  0  0  0  0  0  0  0  0  0  0
   11.9578   -1.4598   -0.3451 N   0  0  0  0  0  0  0  0  0  0  0  0
   13.4123   -3.4171   -0.6258 C   0  0  0  0  0  0  0  0  0  0  0  0
   13.4312   -4.8752   -0.8897 C   0  0  0  0  0  0  0  0  0  0  0  0
   14.0030   -5.7541    0.0355 C   0  0  0  0  0  0  0  0  0  0  0  0
   14.0234   -7.1154   -0.2068 C   0  0  0  0  0  0  0  0  0  0  0  0
   13.4706   -7.6032   -1.3877 C   0  0  0  0  0  0  0  0  0  0  0  0
   13.4924   -9.0310   -1.6491 N   0  0  0  0  0  0  0  0  0  0  0  0
   12.9980   -9.4177   -2.6772 O   0  0  0  0  0  0  0  0  0  0  0  0
   14.0038   -9.7420   -0.8221 O   0  0  0  0  0  0  0  0  0  0  0  0
   12.8977   -6.7455   -2.3226 C   0  0  0  0  0  0  0  0  0  0  0  0
   12.8786   -5.3864   -2.0682 C   0  0  0  0  0  0  0  0  0  0  0  0
   14.6444   -2.7746   -0.4798 C   0  0  0  0  0  0  0  0  0  0  0  0
   15.9250   -3.4062   -0.6306 C   0  0  0  0  0  0  0  0  0  0  0  0
   16.8662   -2.4500   -0.4280 C   0  0  0  0  0  0  0  0  0  0  0  0
   14.8258   -1.4460   -0.2030 N   0  0  0  0  0  0  0  0  0  0  0  0
   16.1686   -1.2280   -0.1614 C   0  0  0  0  0  0  0  0  0  0  0  0
   16.7993    0.0000    0.1065 C   0  0  0  0  0  0  0  0  0  0  0  0
   16.1361    1.2191    0.3318 C   0  0  0  0  0  0  0  0  0  0  0  0
   16.7968    2.4498    0.6475 C   0  0  0  0  0  0  0  0  0  0  0  0
   15.8308    3.3930    0.7849 C   0  0  0  0  0  0  0  0  0  0  0  0
   14.5725    2.7447    0.5433 C   0  0  0  0  0  0  0  0  0  0  0  0
   14.7908    1.4191    0.2794 N   0  0  0  0  0  0  0  0  0  0  0  0
   13.3246    3.3706    0.5989 C   0  0  0  0  0  0  0  0  0  0  0  0
   13.3020    4.8280    0.8669 C   0  0  0  0  0  0  0  0  0  0  0  0
   12.6575    5.3255    2.0038 C   0  0  0  0  0  0  0  0  0  0  0  0
   12.6322    6.6840    2.2606 C   0  0  0  0  0  0  0  0  0  0  0  0
   13.2528    7.5550    1.3694 C   0  0  0  0  0  0  0  0  0  0  0  0
   13.2260    8.9826    1.6319 N   0  0  0  0  0  0  0  0  0  0  0  0
   12.6573    9.3565    2.6258 O   0  0  0  0  0  0  0  0  0  0  0  0
   13.7739    9.7060    0.8399 O   0  0  0  0  0  0  0  0  0  0  0  0
   13.8979    7.0808    0.2306 C   0  0  0  0  0  0  0  0  0  0  0  0
   13.9218    5.7198   -0.0139 C   0  0  0  0  0  0  0  0  0  0  0  0
   12.0941    2.7317    0.4225 C   0  0  0  0  0  0  0  0  0  0  0  0
   10.8136    3.3871    0.4144 C   0  0  0  0  0  0  0  0  0  0  0  0
    9.8774    2.4292    0.2052 C   0  0  0  0  0  0  0  0  0  0  0  0
   10.5769    1.1832    0.0722 C   0  0  0  0  0  0  0  0  0  0  0  0
   11.9198    1.3964    0.2032 N   0  0  0  0  0  0  0  0  0  0  0  0
    8.8843   -0.0491   -0.1924 H   0  0  0  0  0  0  0  0  0  0  0  0
    8.8630   -2.6431   -0.5191 H   0  0  0  0  0  0  0  0  0  0  0  0
   10.7621   -4.5255   -0.7687 H   0  0  0  0  0  0  0  0  0  0  0  0
   14.4190   -5.3633    0.9568 H   0  0  0  0  0  0  0  0  0  0  0  0
   14.4595   -7.8043    0.5066 H   0  0  0  0  0  0  0  0  0  0  0  0
   12.4779   -7.1497   -3.2358 H   0  0  0  0  0  0  0  0  0  0  0  0
   12.4477   -4.7071   -2.7944 H   0  0  0  0  0  0  0  0  0  0  0  0
   16.0816   -4.4439   -0.8765 H   0  0  0  0  0  0  0  0  0  0  0  0
   17.9389   -2.5523   -0.4617 H   0  0  0  0  0  0  0  0  0  0  0  0
   17.8632    2.5657    0.7564 H   0  0  0  0  0  0  0  0  0  0  0  0
   15.9554    4.4324    1.0415 H   0  0  0  0  0  0  0  0  0  0  0  0
   12.1883    4.6362    2.6962 H   0  0  0  0  0  0  0  0  0  0  0  0
   12.1404    7.0779    3.1419 H   0  0  0  0  0  0  0  0  0  0  0  0
   14.3697    7.7798   -0.4496 H   0  0  0  0  0  0  0  0  0  0  0  0
   14.4098    5.3395   -0.9037 H   0  0  0  0  0  0  0  0  0  0  0  0
   10.6584    4.4466    0.5388 H   0  0  0  0  0  0  0  0  0  0  0  0
    8.8073    2.5434    0.1351 H   0  0  0  0  0  0  0  0  0  0  0  0
   31.9689    0.0238   -0.0068 Cu  0  0  0  0  0  0  0  0  0  0  0  0
   35.3722    0.0938   -0.1235 C   0  0  0  0  0  0  0  0  0  0  0  0
   34.7339    1.2882    0.1742 C   0  0  0  0  0  0  0  0  0  0  0  0
   35.4059    2.5207    0.4725 C   0  0  0  0  0  0  0  0  0  0  0  0
   34.4448    3.4478    0.7061 C   0  0  0  0  0  0  0  0  0  0  0  0
   33.1756    2.7917    0.5396 C   0  0  0  0  0  0  0  0  0  0  0  0
   33.3824    1.4800    0.2264 N   0  0  0  0  0  0  0  0  0  0  0  0
   31.9273    3.3992    0.7006 C   0  0  0  0  0  0  0  0  0  0  0  0
   31.9080    4.8499    1.0025 C   0  0  0  0  0  0  0  0  0  0  0  0
   31.3379    5.3177    2.1906 C   0  0  0  0  0  0  0  0  0  0  0  0
   31.3174    6.6706    2.4762 C   0  0  0  0  0  0  0  0  0  0  0  0
   31.8683    7.5657    1.5634 C   0  0  0  0  0  0  0  0  0  0  0  0
   31.8463    8.9874    1.8562 N   0  0  0  0  0  0  0  0  0  0  0  0
   32.3401    9.7313    1.0477 O   0  0  0  0  0  0  0  0  0  0  0  0
   31.3357    9.3363    2.8899 O   0  0  0  0  0  0  0  0  0  0  0  0
   32.4395    7.1211    0.3742 C   0  0  0  0  0  0  0  0  0  0  0  0
   32.4588    5.7658    0.1007 C   0  0  0  0  0  0  0  0  0  0  0  0
   30.6954    2.7482    0.5962 C   0  0  0  0  0  0  0  0  0  0  0  0
   29.4146    3.3897    0.6946 C   0  0  0  0  0  0  0  0  0  0  0  0
   28.4737    2.4270    0.5239 C   0  0  0  0  0  0  0  0  0  0  0  0
   30.5144    1.4129    0.3540 N   0  0  0  0  0  0  0  0  0  0  0  0
   29.1716    1.1947    0.3115 C   0  0  0  0  0  0  0  0  0  0  0  0
   28.5414   -0.0444    0.0985 C   0  0  0  0  0  0  0  0  0  0  0  0
   29.2051   -1.2586   -0.1503 C   0  0  0  0  0  0  0  0  0  0  0  0
   28.5447   -2.5180   -0.3200 C   0  0  0  0  0  0  0  0  0  0  0  0
   29.5110   -3.4435   -0.5464 C   0  0  0  0  0  0  0  0  0  0  0  0
   30.7691   -2.7517   -0.5263 C   0  0  0  0  0  0  0  0  0  0  0  0
   30.5504   -1.4239   -0.2735 N   0  0  0  0  0  0  0  0  0  0  0  0
   32.0172   -3.3524   -0.7088 C   0  0  0  0  0  0  0  0  0  0  0  0
   32.0401   -4.8039   -1.0072 C   0  0  0  0  0  0  0  0  0  0  0  0
   32.6830   -5.6918   -0.1388 C   0  0  0  0  0  0  0  0  0  0  0  0
   32.7085   -7.0474   -0.4105 C   0  0  0  0  0  0  0  0  0  0  0  0
   32.0901   -7.5202   -1.5646 C   0  0  0  0  0  0  0  0  0  0  0  0
   32.1172   -8.9420   -1.8568 N   0  0  0  0  0  0  0  0  0  0  0  0
   32.6847   -9.6615   -1.0751 O   0  0  0  0  0  0  0  0  0  0  0  0
   31.5709   -9.3153   -2.8633 O   0  0  0  0  0  0  0  0  0  0  0  0
   31.4467   -6.6532   -2.4435 C   0  0  0  0  0  0  0  0  0  0  0  0
   31.4224   -5.3000   -2.1594 C   0  0  0  0  0  0  0  0  0  0  0  0
   33.2475   -2.6938   -0.6323 C   0  0  0  0  0  0  0  0  0  0  0  0
   34.5282   -3.2981   -0.8848 C   0  0  0  0  0  0  0  0  0  0  0  0
   35.4642   -2.3314   -0.7198 C   0  0  0  0  0  0  0  0  0  0  0  0
   34.7642   -1.1263   -0.3768 C   0  0  0  0  0  0  0  0  0  0  0  0
   33.4214   -1.3735   -0.3355 N   0  0  0  0  0  0  0  0  0  0  0  0
   36.4563    0.1161   -0.1613 H   0  0  0  0  0  0  0  0  0  0  0  0
   36.4768    2.6439    0.5059 H   0  0  0  0  0  0  0  0  0  0  0  0
   34.5771    4.4820    0.9805 H   0  0  0  0  0  0  0  0  0  0  0  0
   30.9234    4.6099    2.8990 H   0  0  0  0  0  0  0  0  0  0  0  0
   30.8826    7.0416    3.3965 H   0  0  0  0  0  0  0  0  0  0  0  0
   32.8579    7.8384   -0.3216 H   0  0  0  0  0  0  0  0  0  0  0  0
   32.8884    5.4084   -0.8280 H   0  0  0  0  0  0  0  0  0  0  0  0
   29.2576    4.4437    0.8567 H   0  0  0  0  0  0  0  0  0  0  0  0
   27.4009    2.5340    0.5319 H   0  0  0  0  0  0  0  0  0  0  0  0
   27.4783   -2.6665   -0.2631 H   0  0  0  0  0  0  0  0  0  0  0  0
   29.3868   -4.5033   -0.6988 H   0  0  0  0  0  0  0  0  0  0  0  0
   33.1505   -5.3127    0.7625 H   0  0  0  0  0  0  0  0  0  0  0  0
   33.1989   -7.7432    0.2596 H   0  0  0  0  0  0  0  0  0  0  0  0
   30.9767   -7.0458   -3.3371 H   0  0  0  0  0  0  0  0  0  0  0  0
   30.9358   -4.6134   -2.8423 H   0  0  0  0  0  0  0  0  0  0  0  0
   34.6837   -4.3272   -1.1659 H   0  0  0  0  0  0  0  0  0  0  0  0
   36.5343   -2.4107   -0.8273 H   0  0  0  0  0  0  0  0  0  0  0  0
   18.2044    0.0061    0.1470 C   0  0  0  0  0  0  0  0  0  0  0  0
   19.4284   -0.0017    0.1746 C   0  0  0  0  0  0  0  0  0  0  0  0
   20.7711   -0.0115    0.1913 C   0  0  0  0  0  0  0  0  0  0  0  0
   22.0014   -0.0328    0.1969 C   0  0  0  0  0  0  0  0  0  0  0  0
   23.3393   -0.0483    0.1949 C   0  0  0  0  0  0  0  0  0  0  0  0
   24.5697   -0.0650    0.1842 C   0  0  0  0  0  0  0  0  0  0  0  0
   25.9122   -0.0719    0.1590 C   0  0  0  0  0  0  0  0  0  0  0  0
   27.1363   -0.0664    0.1338 C   0  0  0  0  0  0  0  0  0  0  0  0
  2  3  4  0  0  0  0
  3  4  1  0  0  0  0
  4  5  2  0  0  0  0
  5  6  4  0  0  0  0
  1  7  1  0  0  0  0
  3  7  4  0  0  0  0
  6  7  4  0  0  0  0
  6  8  4  0  0  0  0
  8  9  1  0  0  0  0
  9 10  4  0  0  0  0
 10 11  4  0  0  0  0
 11 12  4  0  0  0  0
 12 13  1  0  0  0  0
 13 14  2  0  0  0  0
 13 15  2  0  0  0  0
 14 15  1  0  0  0  0
 12 16  4  0  0  0  0
  9 17  4  0  0  0  0
 16 17  4  0  0  0  0
  8 18  4  0  0  0  0
 18 19  4  0  0  0  0
 19 20  2  0  0  0  0
  1 21  1  0  0  0  0
 18 21  4  0  0  0  0
 20 22  4  0  0  0  0
 21 22  4  0  0  0  0
 22 23  4  0  0  0  0
 23 24  4  0  0  0  0
 24 25  4  0  0  0  0
 25 26  2  0  0  0  0
 26 27  4  0  0  0  0
  1 28  1  0  0  0  0
 24 28  4  0  0  0  0
 27 28  4  0  0  0  0
 27 29  4  0  0  0  0
 29 30  1  0  0  0  0
 30 31  4  0  0  0  0
 31 32  4  0  0  0  0
 32 33  4  0  0  0  0
 33 34  1  0  0  0  0
 34 35  2  0  0  0  0
 34 36  2  0  0  0  0
 35 36  1  0  0  0  0
 33 37  4  0  0  0  0
 30 38  4  0  0  0  0
 37 38  4  0  0  0  0
 29 39  4  0  0  0  0
 39 40  4  0  0  0  0
 40 41  2  0  0  0  0
  2 42  4  0  0  0  0
 41 42  1  0  0  0  0
  1 43  1  0  0  0  0
 39 43  4  0  0  0  0
 42 43  4  0  0  0  0
  2 44  1  0  0  0  0
  4 45  1  0  0  0  0
  5 46  1  0  0  0  0
 10 47  1  0  0  0  0
 11 48  1  0  0  0  0
 16 49  1  0  0  0  0
 17 50  1  0  0  0  0
 19 51  1  0  0  0  0
 20 52  1  0  0  0  0
 25 53  1  0  0  0  0
 26 54  1  0  0  0  0
 31 55  1  0  0  0  0
 32 56  1  0  0  0  0
 37 57  1  0  0  0  0
 38 58  1  0  0  0  0
 40 59  1  0  0  0  0
 41 60  1  0  0  0  0
 62 63  4  0  0  0  0
 63 64  1  0  0  0  0
 64 65  2  0  0  0  0
 65 66  4  0  0  0  0
 61 67  1  0  0  0  0
 63 67  4  0  0  0  0
 66 67  4  0  0  0  0
 66 68  4  0  0  0  0
 68 69  1  0  0  0  0
 69 70  4  0  0  0  0
 70 71  4  0  0  0  0
 71 72  4  0  0  0  0
 72 73  1  0  0  0  0
 73 74  2  0  0  0  0
 73 75  2  0  0  0  0
 74 75  1  0  0  0  0
 72 76  4  0  0  0  0
 69 77  4  0  0  0  0
 76 77  4  0  0  0  0
 68 78  4  0  0  0  0
 78 79  4  0  0  0  0
 79 80  2  0  0  0  0
 61 81  1  0  0  0  0
 78 81  4  0  0  0  0
 80 82  4  0  0  0  0
 81 82  4  0  0  0  0
 82 83  4  0  0  0  0
 83 84  4  0  0  0  0
 84 85  4  0  0  0  0
 85 86  2  0  0  0  0
 86 87  4  0  0  0  0
 61 88  1  0  0  0  0
 84 88  4  0  0  0  0
 87 88  4  0  0  0  0
 87 89  4  0  0  0  0
 89 90  1  0  0  0  0
 90 91  4  0  0  0  0
 91 92  4  0  0  0  0
 92 93  4  0  0  0  0
 93 94  1  0  0  0  0
 94 95  2  0  0  0  0
 94 96  2  0  0  0  0
 95 96  1  0  0  0  0
 93 97  4  0  0  0  0
 90 98  4  0  0  0  0
 97 98  4  0  0  0  0
 89 99  4  0  0  0  0
 99100  4  0  0  0  0
100101  2  0  0  0  0
 62102  4  0  0  0  0
101102  1  0  0  0  0
 61103  1  0  0  0  0
 99103  4  0  0  0  0
102103  4  0  0  0  0
 62104  1  0  0  0  0
 64105  1  0  0  0  0
 65106  1  0  0  0  0
 70107  1  0  0  0  0
 71108  1  0  0  0  0
 76109  1  0  0  0  0
 77110  1  0  0  0  0
 79111  1  0  0  0  0
 80112  1  0  0  0  0
 85113  1  0  0  0  0
 86114  1  0  0  0  0
 91115  1  0  0  0  0
 92116  1  0  0  0  0
 97117  1  0  0  0  0
 98118  1  0  0  0  0
100119  1  0  0  0  0
101120  1  0  0  0  0
 23121  4  0  0  0  0
121122  3  0  0  0  0
122123  4  0  0  0  0
123124  3  0  0  0  0
124125  4  0  0  0  0
125126  3  0  0  0  0
126127  4  0  0  0  0
 83128  4  0  0  0  0
127128  3  0  0  0  0
M  END
