 xtb: 6.5.1 (b24c23e)
          07292208163D

322349  0     0  0            999 V2000
   38.8154   -0.1457   -0.0256 C   0  0  0  0  0  0  0  0  0  0  0  0
   39.4470   -1.3817   -0.0777 C   0  0  0  0  0  0  0  0  0  0  0  0
   38.8287   -2.6622   -0.1452 C   0  0  0  0  0  0  0  0  0  0  0  0
   39.8172   -3.6050   -0.1865 C   0  0  0  0  0  0  0  0  0  0  0  0
   41.0707   -2.9301   -0.1441 C   0  0  0  0  0  0  0  0  0  0  0  0
   40.7969   -1.5936   -0.0782 N   0  0  0  0  0  0  0  0  0  0  0  0
   42.3421   -3.5089   -0.1632 C   0  0  0  0  0  0  0  0  0  0  0  0
   42.3869   -4.9984   -0.2494 C   0  0  0  0  0  0  0  0  0  0  0  0
   42.3976   -5.6229   -1.4999 C   0  0  0  0  0  0  0  0  0  0  0  0
   42.3753   -4.7925   -2.7556 C   0  0  0  0  0  0  0  0  0  0  0  0
   42.4295   -7.0107   -1.5706 C   0  0  0  0  0  0  0  0  0  0  0  0
   42.4518   -7.7849   -0.4153 C   0  0  0  0  0  0  0  0  0  0  0  0
   42.4624   -9.2871   -0.5038 C   0  0  0  0  0  0  0  0  0  0  0  0
   42.4427   -7.1527    0.8239 C   0  0  0  0  0  0  0  0  0  0  0  0
   42.4110   -5.7664    0.9183 C   0  0  0  0  0  0  0  0  0  0  0  0
   42.4029   -5.0899    2.2633 C   0  0  0  0  0  0  0  0  0  0  0  0
   43.5508   -2.8172   -0.1113 C   0  0  0  0  0  0  0  0  0  0  0  0
   44.8476   -3.4700   -0.1268 C   0  0  0  0  0  0  0  0  0  0  0  0
   45.7702   -2.4875   -0.0619 C   0  0  0  0  0  0  0  0  0  0  0  0
   43.7071   -1.4659   -0.0396 N   0  0  0  0  0  0  0  0  0  0  0  0
   45.0348   -1.2381   -0.0098 C   0  0  0  0  0  0  0  0  0  0  0  0
   45.6661    0.0219    0.0543 C   0  0  0  0  0  0  0  0  0  0  0  0
   45.0090    1.2661    0.0971 C   0  0  0  0  0  0  0  0  0  0  0  0
   45.6215    2.5464    0.1589 C   0  0  0  0  0  0  0  0  0  0  0  0
   44.6294    3.4873    0.1848 C   0  0  0  0  0  0  0  0  0  0  0  0
   43.3799    2.8081    0.1398 C   0  0  0  0  0  0  0  0  0  0  0  0
   43.6616    1.4682    0.0877 N   0  0  0  0  0  0  0  0  0  0  0  0
   42.1099    3.3870    0.1487 C   0  0  0  0  0  0  0  0  0  0  0  0
   42.0555    4.8771    0.2093 C   0  0  0  0  0  0  0  0  0  0  0  0
   42.0651    5.6246   -0.9719 C   0  0  0  0  0  0  0  0  0  0  0  0
   42.1351    4.9259   -2.3036 C   0  0  0  0  0  0  0  0  0  0  0  0
   42.0084    7.0117   -0.9033 C   0  0  0  0  0  0  0  0  0  0  0  0
   41.9431    7.6648    0.3232 C   0  0  0  0  0  0  0  0  0  0  0  0
   41.8589    9.1660    0.3837 C   0  0  0  0  0  0  0  0  0  0  0  0
   41.9337    6.9108    1.4922 C   0  0  0  0  0  0  0  0  0  0  0  0
   41.9896    5.5228    1.4473 C   0  0  0  0  0  0  0  0  0  0  0  0
   41.9781    4.7142    2.7173 C   0  0  0  0  0  0  0  0  0  0  0  0
   40.8999    2.6913    0.1083 C   0  0  0  0  0  0  0  0  0  0  0  0
   39.5970    3.3380    0.1222 C   0  0  0  0  0  0  0  0  0  0  0  0
   38.6803    2.3502    0.0760 C   0  0  0  0  0  0  0  0  0  0  0  0
   39.4228    1.1023    0.0322 C   0  0  0  0  0  0  0  0  0  0  0  0
   40.7562    1.3460    0.0531 N   0  0  0  0  0  0  0  0  0  0  0  0
   37.7305   -0.1665   -0.0345 H   0  0  0  0  0  0  0  0  0  0  0  0
   37.7630   -2.8262   -0.1603 H   0  0  0  0  0  0  0  0  0  0  0  0
   39.7010   -4.6756   -0.2404 H   0  0  0  0  0  0  0  0  0  0  0  0
   41.4986   -0.8623   -0.0375 H   0  0  0  0  0  0  0  0  0  0  0  0
   41.4610   -4.1974   -2.8002 H   0  0  0  0  0  0  0  0  0  0  0  0
   42.4228   -5.4252   -3.6414 H   0  0  0  0  0  0  0  0  0  0  0  0
   43.2223   -4.1043   -2.7702 H   0  0  0  0  0  0  0  0  0  0  0  0
   42.4382   -7.4950   -2.5417 H   0  0  0  0  0  0  0  0  0  0  0  0
   41.4379   -9.6667   -0.4934 H   0  0  0  0  0  0  0  0  0  0  0  0
   42.9376   -9.6190   -1.4272 H   0  0  0  0  0  0  0  0  0  0  0  0
   42.9932   -9.7225    0.3432 H   0  0  0  0  0  0  0  0  0  0  0  0
   42.4616   -7.7487    1.7305 H   0  0  0  0  0  0  0  0  0  0  0  0
   41.5020   -4.4839    2.3776 H   0  0  0  0  0  0  0  0  0  0  0  0
   42.4347   -5.8236    3.0682 H   0  0  0  0  0  0  0  0  0  0  0  0
   43.2650   -4.4273    2.3592 H   0  0  0  0  0  0  0  0  0  0  0  0
   45.0013   -4.5359   -0.1803 H   0  0  0  0  0  0  0  0  0  0  0  0
   46.8452   -2.5720   -0.0504 H   0  0  0  0  0  0  0  0  0  0  0  0
   46.6863    2.7142    0.1804 H   0  0  0  0  0  0  0  0  0  0  0  0
   44.7424    4.5583    0.2320 H   0  0  0  0  0  0  0  0  0  0  0  0
   42.9627    0.7339    0.0480 H   0  0  0  0  0  0  0  0  0  0  0  0
   42.0956    5.6437   -3.1223 H   0  0  0  0  0  0  0  0  0  0  0  0
   43.0624    4.3552   -2.3840 H   0  0  0  0  0  0  0  0  0  0  0  0
   41.3032    4.2271   -2.4093 H   0  0  0  0  0  0  0  0  0  0  0  0
   42.0156    7.5916   -1.8205 H   0  0  0  0  0  0  0  0  0  0  0  0
   42.3063    9.5437    1.3034 H   0  0  0  0  0  0  0  0  0  0  0  0
   40.8128    9.4803    0.3611 H   0  0  0  0  0  0  0  0  0  0  0  0
   42.3670    9.6185   -0.4682 H   0  0  0  0  0  0  0  0  0  0  0  0
   41.8827    7.4116    2.4535 H   0  0  0  0  0  0  0  0  0  0  0  0
   41.9244    5.3628    3.5912 H   0  0  0  0  0  0  0  0  0  0  0  0
   41.1200    4.0396    2.7287 H   0  0  0  0  0  0  0  0  0  0  0  0
   42.8817    4.1057    2.7879 H   0  0  0  0  0  0  0  0  0  0  0  0
   39.4382    4.4039    0.1617 H   0  0  0  0  0  0  0  0  0  0  0  0
   37.6041    2.4260    0.0697 H   0  0  0  0  0  0  0  0  0  0  0  0
  101.5649    0.1067   -0.0169 C   0  0  0  0  0  0  0  0  0  0  0  0
  100.9427    1.3418   -0.1461 C   0  0  0  0  0  0  0  0  0  0  0  0
  101.5707    2.6133   -0.2708 C   0  0  0  0  0  0  0  0  0  0  0  0
  100.5894    3.5584   -0.3795 C   0  0  0  0  0  0  0  0  0  0  0  0
   99.3309    2.8938   -0.3242 C   0  0  0  0  0  0  0  0  0  0  0  0
   99.5945    1.5612   -0.1822 N   0  0  0  0  0  0  0  0  0  0  0  0
   98.0638    3.4774   -0.4001 C   0  0  0  0  0  0  0  0  0  0  0  0
   98.0290    4.9609   -0.5626 C   0  0  0  0  0  0  0  0  0  0  0  0
   98.0443    5.5225   -1.8425 C   0  0  0  0  0  0  0  0  0  0  0  0
   98.0879    4.6306   -3.0547 C   0  0  0  0  0  0  0  0  0  0  0  0
   98.0176    6.9051   -1.9826 C   0  0  0  0  0  0  0  0  0  0  0  0
   97.9752    7.7358   -0.8677 C   0  0  0  0  0  0  0  0  0  0  0  0
   97.9685    9.2318   -1.0309 C   0  0  0  0  0  0  0  0  0  0  0  0
   97.9599    7.1660    0.4013 C   0  0  0  0  0  0  0  0  0  0  0  0
   97.9859    5.7859    0.5649 C   0  0  0  0  0  0  0  0  0  0  0  0
   97.9668    5.1773    1.9418 C   0  0  0  0  0  0  0  0  0  0  0  0
   96.8498    2.7959   -0.3369 C   0  0  0  0  0  0  0  0  0  0  0  0
   95.5580    3.4535   -0.4190 C   0  0  0  0  0  0  0  0  0  0  0  0
   94.6277    2.4815   -0.3158 C   0  0  0  0  0  0  0  0  0  0  0  0
   96.6832    1.4520   -0.1893 N   0  0  0  0  0  0  0  0  0  0  0  0
   95.3536    1.2338   -0.1723 C   0  0  0  0  0  0  0  0  0  0  0  0
   94.7126   -0.0152   -0.0332 C   0  0  0  0  0  0  0  0  0  0  0  0
   95.3605   -1.2577    0.1032 C   0  0  0  0  0  0  0  0  0  0  0  0
   94.7384   -2.5275    0.2394 C   0  0  0  0  0  0  0  0  0  0  0  0
   95.7236   -3.4713    0.3352 C   0  0  0  0  0  0  0  0  0  0  0  0
   96.9782   -2.8043    0.2607 C   0  0  0  0  0  0  0  0  0  0  0  0
   96.7064   -1.4685    0.1218 N   0  0  0  0  0  0  0  0  0  0  0  0
   98.2440   -3.3896    0.3175 C   0  0  0  0  0  0  0  0  0  0  0  0
   98.2883   -4.8738    0.4671 C   0  0  0  0  0  0  0  0  0  0  0  0
   98.2806   -5.6902   -0.6676 C   0  0  0  0  0  0  0  0  0  0  0  0
   98.2205   -5.0716   -2.0389 C   0  0  0  0  0  0  0  0  0  0  0  0
   98.3306   -7.0710   -0.5164 C   0  0  0  0  0  0  0  0  0  0  0  0
   98.3873   -7.6502    0.7471 C   0  0  0  0  0  0  0  0  0  0  0  0
   98.4656   -9.1455    0.8970 C   0  0  0  0  0  0  0  0  0  0  0  0
   98.3939   -6.8282    1.8692 C   0  0  0  0  0  0  0  0  0  0  0  0
   98.3447   -5.4450    1.7417 C   0  0  0  0  0  0  0  0  0  0  0  0
   98.3536   -4.5624    2.9613 C   0  0  0  0  0  0  0  0  0  0  0  0
   99.4591   -2.7052    0.2492 C   0  0  0  0  0  0  0  0  0  0  0  0
  100.7572   -3.3582    0.3155 C   0  0  0  0  0  0  0  0  0  0  0  0
  101.6813   -2.3804    0.2246 C   0  0  0  0  0  0  0  0  0  0  0  0
  100.9481   -1.1324    0.1009 C   0  0  0  0  0  0  0  0  0  0  0  0
   99.6129   -1.3661    0.1185 N   0  0  0  0  0  0  0  0  0  0  0  0
  102.6499    0.1204   -0.0101 H   0  0  0  0  0  0  0  0  0  0  0  0
  102.6376    2.7701   -0.2755 H   0  0  0  0  0  0  0  0  0  0  0  0
  100.7136    4.6238   -0.4882 H   0  0  0  0  0  0  0  0  0  0  0  0
   98.8873    0.8372   -0.1145 H   0  0  0  0  0  0  0  0  0  0  0  0
   98.9998    4.0302   -3.0507 H   0  0  0  0  0  0  0  0  0  0  0  0
   98.0616    5.2185   -3.9716 H   0  0  0  0  0  0  0  0  0  0  0  0
   97.2378    3.9460   -3.0525 H   0  0  0  0  0  0  0  0  0  0  0  0
   98.0284    7.3406   -2.9764 H   0  0  0  0  0  0  0  0  0  0  0  0
   98.9935    9.6102   -1.0279 H   0  0  0  0  0  0  0  0  0  0  0  0
   97.5043    9.5178   -1.9750 H   0  0  0  0  0  0  0  0  0  0  0  0
   97.4289    9.7094   -0.2128 H   0  0  0  0  0  0  0  0  0  0  0  0
   97.9257    7.8062    1.2768 H   0  0  0  0  0  0  0  0  0  0  0  0
   98.8625    4.5740    2.1022 H   0  0  0  0  0  0  0  0  0  0  0  0
   97.9245    5.9502    2.7086 H   0  0  0  0  0  0  0  0  0  0  0  0
   97.0999    4.5238    2.0550 H   0  0  0  0  0  0  0  0  0  0  0  0
   95.4125    4.5151   -0.5392 H   0  0  0  0  0  0  0  0  0  0  0  0
   93.5533    2.5721   -0.3324 H   0  0  0  0  0  0  0  0  0  0  0  0
   93.6723   -2.6870    0.2597 H   0  0  0  0  0  0  0  0  0  0  0  0
   95.6026   -4.5365    0.4486 H   0  0  0  0  0  0  0  0  0  0  0  0
   97.4108   -0.7426    0.0435 H   0  0  0  0  0  0  0  0  0  0  0  0
   98.2637   -5.8370   -2.8132 H   0  0  0  0  0  0  0  0  0  0  0  0
   97.2947   -4.5055   -2.1590 H   0  0  0  0  0  0  0  0  0  0  0  0
   99.0543   -4.3816   -2.1806 H   0  0  0  0  0  0  0  0  0  0  0  0
   98.3254   -7.7043   -1.3975 H   0  0  0  0  0  0  0  0  0  0  0  0
   98.0173   -9.4660    1.8376 H   0  0  0  0  0  0  0  0  0  0  0  0
   99.5105   -9.4646    0.8927 H   0  0  0  0  0  0  0  0  0  0  0  0
   97.9554   -9.6460    0.0736 H   0  0  0  0  0  0  0  0  0  0  0  0
   98.4378   -7.2711    2.8588 H   0  0  0  0  0  0  0  0  0  0  0  0
   98.3950   -5.1582    3.8726 H   0  0  0  0  0  0  0  0  0  0  0  0
   99.2176   -3.8956    2.9397 H   0  0  0  0  0  0  0  0  0  0  0  0
   97.4550   -3.9432    2.9883 H   0  0  0  0  0  0  0  0  0  0  0  0
  100.9081   -4.4211    0.4173 H   0  0  0  0  0  0  0  0  0  0  0  0
  102.7569   -2.4632    0.2360 H   0  0  0  0  0  0  0  0  0  0  0  0
   47.0704    0.0502    0.0719 C   0  0  0  0  0  0  0  0  0  0  0  0
   48.2951    0.0664    0.0848 C   0  0  0  0  0  0  0  0  0  0  0  0
   49.6375    0.0776    0.0911 C   0  0  0  0  0  0  0  0  0  0  0  0
   50.8684    0.0789    0.0961 C   0  0  0  0  0  0  0  0  0  0  0  0
   52.2061    0.0753    0.0925 C   0  0  0  0  0  0  0  0  0  0  0  0
   53.4370    0.0619    0.0876 C   0  0  0  0  0  0  0  0  0  0  0  0
   54.7790    0.0466    0.0738 C   0  0  0  0  0  0  0  0  0  0  0  0
   56.0039    0.0281    0.0561 C   0  0  0  0  0  0  0  0  0  0  0  0
   65.7232    0.0123    0.0085 C   0  0  0  0  0  0  0  0  0  0  0  0
   66.9485    0.0232    0.0152 C   0  0  0  0  0  0  0  0  0  0  0  0
   68.2894    0.0280    0.0255 C   0  0  0  0  0  0  0  0  0  0  0  0
   69.5208    0.0318    0.0275 C   0  0  0  0  0  0  0  0  0  0  0  0
   70.8571    0.0308    0.0271 C   0  0  0  0  0  0  0  0  0  0  0  0
   72.0885    0.0246    0.0246 C   0  0  0  0  0  0  0  0  0  0  0  0
   73.4294    0.0119    0.0163 C   0  0  0  0  0  0  0  0  0  0  0  0
   74.6545   -0.0017    0.0042 C   0  0  0  0  0  0  0  0  0  0  0  0
   84.3744   -0.0880   -0.0465 C   0  0  0  0  0  0  0  0  0  0  0  0
   85.5996   -0.0849   -0.0401 C   0  0  0  0  0  0  0  0  0  0  0  0
   86.9416   -0.0820   -0.0325 C   0  0  0  0  0  0  0  0  0  0  0  0
   88.1727   -0.0792   -0.0310 C   0  0  0  0  0  0  0  0  0  0  0  0
   89.5101   -0.0721   -0.0263 C   0  0  0  0  0  0  0  0  0  0  0  0
   90.7412   -0.0638   -0.0261 C   0  0  0  0  0  0  0  0  0  0  0  0
   92.0834   -0.0514   -0.0268 C   0  0  0  0  0  0  0  0  0  0  0  0
   93.3083   -0.0345   -0.0306 C   0  0  0  0  0  0  0  0  0  0  0  0
   57.4072    0.0091    0.0352 C   0  0  0  0  0  0  0  0  0  0  0  0
   58.0409   -0.9330    0.8688 C   0  0  0  0  0  0  0  0  0  0  0  0
   57.4080   -1.8731    1.7231 C   0  0  0  0  0  0  0  0  0  0  0  0
   58.3861   -2.6007    2.3451 C   0  0  0  0  0  0  0  0  0  0  0  0
   59.6446   -2.1223    1.8889 C   0  0  0  0  0  0  0  0  0  0  0  0
   59.3851   -1.1149    0.9985 N   0  0  0  0  0  0  0  0  0  0  0  0
   60.9058   -2.5839    2.2762 C   0  0  0  0  0  0  0  0  0  0  0  0
   60.9234   -3.7057    3.2611 C   0  0  0  0  0  0  0  0  0  0  0  0
   60.8920   -5.0289    2.8108 C   0  0  0  0  0  0  0  0  0  0  0  0
   60.8393   -5.3200    1.3347 C   0  0  0  0  0  0  0  0  0  0  0  0
   60.9114   -6.0656    3.7360 C   0  0  0  0  0  0  0  0  0  0  0  0
   60.9611   -5.8044    5.1018 C   0  0  0  0  0  0  0  0  0  0  0  0
   61.0026   -6.9385    6.0900 C   0  0  0  0  0  0  0  0  0  0  0  0
   60.9936   -4.4844    5.5380 C   0  0  0  0  0  0  0  0  0  0  0  0
   60.9751   -3.4314    4.6305 C   0  0  0  0  0  0  0  0  0  0  0  0
   61.0124   -2.0051    5.1110 C   0  0  0  0  0  0  0  0  0  0  0  0
   62.1317   -2.0920    1.8346 C   0  0  0  0  0  0  0  0  0  0  0  0
   63.4103   -2.6085    2.2890 C   0  0  0  0  0  0  0  0  0  0  0  0
   64.3598   -1.8839    1.6611 C   0  0  0  0  0  0  0  0  0  0  0  0
   62.3247   -1.0787    0.9450 N   0  0  0  0  0  0  0  0  0  0  0  0
   63.6584   -0.9320    0.8220 C   0  0  0  0  0  0  0  0  0  0  0  0
   64.3209    0.0009   -0.0025 C   0  0  0  0  0  0  0  0  0  0  0  0
   63.6871    0.9270   -0.8540 C   0  0  0  0  0  0  0  0  0  0  0  0
   64.3204    1.8622   -1.7131 C   0  0  0  0  0  0  0  0  0  0  0  0
   63.3422    2.5548   -2.3735 C   0  0  0  0  0  0  0  0  0  0  0  0
   62.0835    2.0627   -1.9322 C   0  0  0  0  0  0  0  0  0  0  0  0
   62.3431    1.0811   -1.0136 N   0  0  0  0  0  0  0  0  0  0  0  0
   60.8225    2.4978   -2.3488 C   0  0  0  0  0  0  0  0  0  0  0  0
   60.8098    3.5747   -3.3827 C   0  0  0  0  0  0  0  0  0  0  0  0
   60.8433    3.2362   -4.7384 C   0  0  0  0  0  0  0  0  0  0  0  0
   60.8910    1.7893   -5.1518 C   0  0  0  0  0  0  0  0  0  0  0  0
   60.8320    4.2448   -5.6949 C   0  0  0  0  0  0  0  0  0  0  0  0
   60.7876    5.5837   -5.3211 C   0  0  0  0  0  0  0  0  0  0  0  0
   60.7947    6.6687   -6.3638 C   0  0  0  0  0  0  0  0  0  0  0  0
   60.7568    5.9088   -3.9687 C   0  0  0  0  0  0  0  0  0  0  0  0
   60.7672    4.9171   -2.9951 C   0  0  0  0  0  0  0  0  0  0  0  0
   60.7320    5.2770   -1.5337 C   0  0  0  0  0  0  0  0  0  0  0  0
   59.5964    2.0222   -1.8895 C   0  0  0  0  0  0  0  0  0  0  0  0
   58.3179    2.5323   -2.3512 C   0  0  0  0  0  0  0  0  0  0  0  0
   57.3686    1.8470   -1.6804 C   0  0  0  0  0  0  0  0  0  0  0  0
   58.0696    0.9167   -0.8170 C   0  0  0  0  0  0  0  0  0  0  0  0
   59.4036    1.0439   -0.9618 N   0  0  0  0  0  0  0  0  0  0  0  0
   56.3409   -1.9731    1.8393 H   0  0  0  0  0  0  0  0  0  0  0  0
   58.2559   -3.3979    3.0590 H   0  0  0  0  0  0  0  0  0  0  0  0
   60.0929   -0.5808    0.5057 H   0  0  0  0  0  0  0  0  0  0  0  0
   59.9217   -4.9169    0.9015 H   0  0  0  0  0  0  0  0  0  0  0  0
   61.6829   -4.8509    0.8252 H   0  0  0  0  0  0  0  0  0  0  0  0
   60.8703   -6.3931    1.1483 H   0  0  0  0  0  0  0  0  0  0  0  0
   60.8872   -7.0927    3.3868 H   0  0  0  0  0  0  0  0  0  0  0  0
   60.6420   -6.6173    7.0673 H   0  0  0  0  0  0  0  0  0  0  0  0
   60.3930   -7.7745    5.7458 H   0  0  0  0  0  0  0  0  0  0  0  0
   62.0293   -7.2936    6.2051 H   0  0  0  0  0  0  0  0  0  0  0  0
   61.0334   -4.2708    6.6011 H   0  0  0  0  0  0  0  0  0  0  0  0
   60.1256   -1.4667    4.7711 H   0  0  0  0  0  0  0  0  0  0  0  0
   61.0519   -1.9618    6.1990 H   0  0  0  0  0  0  0  0  0  0  0  0
   61.8883   -1.4930    4.7084 H   0  0  0  0  0  0  0  0  0  0  0  0
   63.5353   -3.4154    2.9931 H   0  0  0  0  0  0  0  0  0  0  0  0
   65.4322   -1.9664    1.7374 H   0  0  0  0  0  0  0  0  0  0  0  0
   65.3877    1.9811   -1.8082 H   0  0  0  0  0  0  0  0  0  0  0  0
   63.4725    3.3396   -3.1009 H   0  0  0  0  0  0  0  0  0  0  0  0
   61.6354    0.5436   -0.5242 H   0  0  0  0  0  0  0  0  0  0  0  0
   60.8569    1.6933   -6.2366 H   0  0  0  0  0  0  0  0  0  0  0  0
   60.0479    1.2439   -4.7243 H   0  0  0  0  0  0  0  0  0  0  0  0
   61.8090    1.3224   -4.7892 H   0  0  0  0  0  0  0  0  0  0  0  0
   60.8562    3.9814   -6.7473 H   0  0  0  0  0  0  0  0  0  0  0  0
   60.3883    6.3042   -7.3074 H   0  0  0  0  0  0  0  0  0  0  0  0
   61.8183    7.0065   -6.5417 H   0  0  0  0  0  0  0  0  0  0  0  0
   60.2080    7.5267   -6.0344 H   0  0  0  0  0  0  0  0  0  0  0  0
   60.7225    6.9509   -3.6681 H   0  0  0  0  0  0  0  0  0  0  0  0
   61.6098    4.8764   -1.0231 H   0  0  0  0  0  0  0  0  0  0  0  0
   60.7127    6.3581   -1.3995 H   0  0  0  0  0  0  0  0  0  0  0  0
   59.8464    4.8497   -1.0597 H   0  0  0  0  0  0  0  0  0  0  0  0
   58.1932    3.3094   -3.0882 H   0  0  0  0  0  0  0  0  0  0  0  0
   56.2963    1.9391   -1.7468 H   0  0  0  0  0  0  0  0  0  0  0  0
   76.0567   -0.0231   -0.0096 C   0  0  0  0  0  0  0  0  0  0  0  0
   76.6840   -0.9578    0.8372 C   0  0  0  0  0  0  0  0  0  0  0  0
   76.0444   -1.8826    1.7029 C   0  0  0  0  0  0  0  0  0  0  0  0
   77.0174   -2.6106    2.3321 C   0  0  0  0  0  0  0  0  0  0  0  0
   78.2791   -2.1484    1.8679 C   0  0  0  0  0  0  0  0  0  0  0  0
   78.0265   -1.1479    0.9678 N   0  0  0  0  0  0  0  0  0  0  0  0
   79.5366   -2.6218    2.2523 C   0  0  0  0  0  0  0  0  0  0  0  0
   79.5418   -3.7382    3.2434 C   0  0  0  0  0  0  0  0  0  0  0  0
   79.4711   -5.0624    2.8008 C   0  0  0  0  0  0  0  0  0  0  0  0
   79.3892   -5.3597    1.3271 C   0  0  0  0  0  0  0  0  0  0  0  0
   79.4750   -6.0946    3.7312 C   0  0  0  0  0  0  0  0  0  0  0  0
   79.5465   -5.8277    5.0949 C   0  0  0  0  0  0  0  0  0  0  0  0
   79.5706   -6.9574    6.0887 C   0  0  0  0  0  0  0  0  0  0  0  0
   79.6153   -4.5066    5.5237 C   0  0  0  0  0  0  0  0  0  0  0  0
   79.6129   -3.4581    4.6108 C   0  0  0  0  0  0  0  0  0  0  0  0
   79.6854   -2.0306    5.0835 C   0  0  0  0  0  0  0  0  0  0  0  0
   80.7661   -2.1490    1.7993 C   0  0  0  0  0  0  0  0  0  0  0  0
   82.0406   -2.6823    2.2454 C   0  0  0  0  0  0  0  0  0  0  0  0
   82.9955   -1.9733    1.6078 C   0  0  0  0  0  0  0  0  0  0  0  0
   80.9666   -1.1415    0.9049 N   0  0  0  0  0  0  0  0  0  0  0  0
   82.3017   -1.0130    0.7720 C   0  0  0  0  0  0  0  0  0  0  0  0
   82.9710   -0.0855   -0.0530 C   0  0  0  0  0  0  0  0  0  0  0  0
   82.3434    0.8518   -0.8969 C   0  0  0  0  0  0  0  0  0  0  0  0
   82.9828    1.7875   -1.7511 C   0  0  0  0  0  0  0  0  0  0  0  0
   82.0093    2.4932   -2.4047 C   0  0  0  0  0  0  0  0  0  0  0  0
   80.7474    2.0083   -1.9653 C   0  0  0  0  0  0  0  0  0  0  0  0
   81.0002    1.0184   -1.0536 N   0  0  0  0  0  0  0  0  0  0  0  0
   79.4891    2.4536   -2.3804 C   0  0  0  0  0  0  0  0  0  0  0  0
   79.4793    3.5418   -3.4024 C   0  0  0  0  0  0  0  0  0  0  0  0
   79.5073    3.2203   -4.7622 C   0  0  0  0  0  0  0  0  0  0  0  0
   79.5497    1.7785   -5.1938 C   0  0  0  0  0  0  0  0  0  0  0  0
   79.4918    4.2408   -5.7060 C   0  0  0  0  0  0  0  0  0  0  0  0
   79.4474    5.5748   -5.3154 C   0  0  0  0  0  0  0  0  0  0  0  0
   79.4479    6.6730   -6.3442 C   0  0  0  0  0  0  0  0  0  0  0  0
   79.4207    5.8830   -3.9589 C   0  0  0  0  0  0  0  0  0  0  0  0
   79.4353    4.8793   -2.9979 C   0  0  0  0  0  0  0  0  0  0  0  0
   79.4002    5.2208   -1.5321 C   0  0  0  0  0  0  0  0  0  0  0  0
   78.2598    1.9794   -1.9289 C   0  0  0  0  0  0  0  0  0  0  0  0
   76.9848    2.4924   -2.3972 C   0  0  0  0  0  0  0  0  0  0  0  0
   76.0306    1.8070   -1.7334 C   0  0  0  0  0  0  0  0  0  0  0  0
   76.7255    0.8761   -0.8659 C   0  0  0  0  0  0  0  0  0  0  0  0
   78.0600    0.9998   -1.0037 N   0  0  0  0  0  0  0  0  0  0  0  0
   74.9766   -1.9726    1.8215 H   0  0  0  0  0  0  0  0  0  0  0  0
   76.8815   -3.3980    3.0558 H   0  0  0  0  0  0  0  0  0  0  0  0
   78.7377   -0.6251    0.4677 H   0  0  0  0  0  0  0  0  0  0  0  0
   78.4683   -4.9484    0.9090 H   0  0  0  0  0  0  0  0  0  0  0  0
   80.2284   -4.9025    0.7999 H   0  0  0  0  0  0  0  0  0  0  0  0
   79.4042   -6.4339    1.1455 H   0  0  0  0  0  0  0  0  0  0  0  0
   79.4202   -7.1224    3.3878 H   0  0  0  0  0  0  0  0  0  0  0  0
   79.2232   -6.6238    7.0666 H   0  0  0  0  0  0  0  0  0  0  0  0
   78.9415   -7.7823    5.7528 H   0  0  0  0  0  0  0  0  0  0  0  0
   80.5905   -7.3331    6.1991 H   0  0  0  0  0  0  0  0  0  0  0  0
   79.6700   -4.2886    6.5853 H   0  0  0  0  0  0  0  0  0  0  0  0
   78.8188   -1.4690    4.7295 H   0  0  0  0  0  0  0  0  0  0  0  0
   79.7130   -1.9818    6.1716 H   0  0  0  0  0  0  0  0  0  0  0  0
   80.5807   -1.5462    4.6889 H   0  0  0  0  0  0  0  0  0  0  0  0
   82.1592   -3.4893    2.9506 H   0  0  0  0  0  0  0  0  0  0  0  0
   84.0672   -2.0711    1.6762 H   0  0  0  0  0  0  0  0  0  0  0  0
   84.0508    1.8979   -1.8478 H   0  0  0  0  0  0  0  0  0  0  0  0
   82.1448    3.2818   -3.1271 H   0  0  0  0  0  0  0  0  0  0  0  0
   80.2887    0.4841   -0.5663 H   0  0  0  0  0  0  0  0  0  0  0  0
   79.5145    1.6962   -6.2797 H   0  0  0  0  0  0  0  0  0  0  0  0
   78.7042    1.2315   -4.7728 H   0  0  0  0  0  0  0  0  0  0  0  0
   80.4657    1.3031   -4.8373 H   0  0  0  0  0  0  0  0  0  0  0  0
   79.5111    3.9906   -6.7617 H   0  0  0  0  0  0  0  0  0  0  0  0
   79.0411    6.3191   -7.2916 H   0  0  0  0  0  0  0  0  0  0  0  0
   80.4697    7.0176   -6.5197 H   0  0  0  0  0  0  0  0  0  0  0  0
   78.8583    7.5242   -6.0026 H   0  0  0  0  0  0  0  0  0  0  0  0
   79.3848    6.9212   -3.6452 H   0  0  0  0  0  0  0  0  0  0  0  0
   80.2825    4.8218   -1.0281 H   0  0  0  0  0  0  0  0  0  0  0  0
   79.3714    6.2999   -1.3845 H   0  0  0  0  0  0  0  0  0  0  0  0
   78.5194    4.7797   -1.0618 H   0  0  0  0  0  0  0  0  0  0  0  0
   76.8652    3.2706   -3.1338 H   0  0  0  0  0  0  0  0  0  0  0  0
   74.9588    1.9005   -1.8060 H   0  0  0  0  0  0  0  0  0  0  0  0
  1  2  4  0  0  0  0
  2  3  4  0  0  0  0
  3  4  2  0  0  0  0
  4  5  4  0  0  0  0
  2  6  4  0  0  0  0
  5  6  4  0  0  0  0
  5  7  4  0  0  0  0
  7  8  1  0  0  0  0
  8  9  4  0  0  0  0
  9 10  1  0  0  0  0
  9 11  4  0  0  0  0
 11 12  4  0  0  0  0
 12 13  1  0  0  0  0
 12 14  4  0  0  0  0
  8 15  4  0  0  0  0
 14 15  4  0  0  0  0
 15 16  1  0  0  0  0
  7 17  4  0  0  0  0
 17 18  1  0  0  0  0
 18 19  2  0  0  0  0
 17 20  4  0  0  0  0
 19 21  1  0  0  0  0
 20 21  4  0  0  0  0
 21 22  4  0  0  0  0
 22 23  4  0  0  0  0
 23 24  4  0  0  0  0
 24 25  2  0  0  0  0
 25 26  4  0  0  0  0
 23 27  4  0  0  0  0
 26 27  4  0  0  0  0
 26 28  4  0  0  0  0
 28 29  1  0  0  0  0
 29 30  4  0  0  0  0
 30 31  1  0  0  0  0
 30 32  4  0  0  0  0
 32 33  4  0  0  0  0
 33 34  1  0  0  0  0
 33 35  4  0  0  0  0
 29 36  4  0  0  0  0
 35 36  4  0  0  0  0
 36 37  1  0  0  0  0
 28 38  4  0  0  0  0
 38 39  1  0  0  0  0
 39 40  2  0  0  0  0
  1 41  4  0  0  0  0
 40 41  1  0  0  0  0
 38 42  4  0  0  0  0
 41 42  4  0  0  0  0
  1 43  1  0  0  0  0
  3 44  1  0  0  0  0
  4 45  1  0  0  0  0
  6 46  1  0  0  0  0
 10 47  1  0  0  0  0
 10 48  1  0  0  0  0
 10 49  1  0  0  0  0
 11 50  1  0  0  0  0
 13 51  1  0  0  0  0
 13 52  1  0  0  0  0
 13 53  1  0  0  0  0
 14 54  1  0  0  0  0
 16 55  1  0  0  0  0
 16 56  1  0  0  0  0
 16 57  1  0  0  0  0
 18 58  1  0  0  0  0
 19 59  1  0  0  0  0
 24 60  1  0  0  0  0
 25 61  1  0  0  0  0
 27 62  1  0  0  0  0
 31 63  1  0  0  0  0
 31 64  1  0  0  0  0
 31 65  1  0  0  0  0
 32 66  1  0  0  0  0
 34 67  1  0  0  0  0
 34 68  1  0  0  0  0
 34 69  1  0  0  0  0
 35 70  1  0  0  0  0
 37 71  1  0  0  0  0
 37 72  1  0  0  0  0
 37 73  1  0  0  0  0
 39 74  1  0  0  0  0
 40 75  1  0  0  0  0
 76 77  4  0  0  0  0
 77 78  4  0  0  0  0
 78 79  2  0  0  0  0
 79 80  4  0  0  0  0
 77 81  4  0  0  0  0
 80 81  4  0  0  0  0
 80 82  4  0  0  0  0
 82 83  1  0  0  0  0
 83 84  4  0  0  0  0
 84 85  1  0  0  0  0
 84 86  4  0  0  0  0
 86 87  4  0  0  0  0
 87 88  1  0  0  0  0
 87 89  4  0  0  0  0
 83 90  4  0  0  0  0
 89 90  4  0  0  0  0
 90 91  1  0  0  0  0
 82 92  4  0  0  0  0
 92 93  1  0  0  0  0
 93 94  2  0  0  0  0
 92 95  4  0  0  0  0
 94 96  1  0  0  0  0
 95 96  4  0  0  0  0
 96 97  4  0  0  0  0
 97 98  4  0  0  0  0
 98 99  4  0  0  0  0
 99100  2  0  0  0  0
100101  4  0  0  0  0
 98102  4  0  0  0  0
101102  4  0  0  0  0
101103  4  0  0  0  0
103104  1  0  0  0  0
104105  4  0  0  0  0
105106  1  0  0  0  0
105107  4  0  0  0  0
107108  4  0  0  0  0
108109  1  0  0  0  0
108110  4  0  0  0  0
104111  4  0  0  0  0
110111  4  0  0  0  0
111112  1  0  0  0  0
103113  4  0  0  0  0
113114  1  0  0  0  0
114115  2  0  0  0  0
 76116  4  0  0  0  0
115116  1  0  0  0  0
113117  4  0  0  0  0
116117  4  0  0  0  0
 76118  1  0  0  0  0
 78119  1  0  0  0  0
 79120  1  0  0  0  0
 81121  1  0  0  0  0
 85122  1  0  0  0  0
 85123  1  0  0  0  0
 85124  1  0  0  0  0
 86125  1  0  0  0  0
 88126  1  0  0  0  0
 88127  1  0  0  0  0
 88128  1  0  0  0  0
 89129  1  0  0  0  0
 91130  1  0  0  0  0
 91131  1  0  0  0  0
 91132  1  0  0  0  0
 93133  1  0  0  0  0
 94134  1  0  0  0  0
 99135  1  0  0  0  0
100136  1  0  0  0  0
102137  1  0  0  0  0
106138  1  0  0  0  0
106139  1  0  0  0  0
106140  1  0  0  0  0
107141  1  0  0  0  0
109142  1  0  0  0  0
109143  1  0  0  0  0
109144  1  0  0  0  0
110145  1  0  0  0  0
112146  1  0  0  0  0
112147  1  0  0  0  0
112148  1  0  0  0  0
114149  1  0  0  0  0
115150  1  0  0  0  0
 22151  4  0  0  0  0
151152  3  0  0  0  0
152153  4  0  0  0  0
153154  3  0  0  0  0
154155  4  0  0  0  0
155156  3  0  0  0  0
156157  4  0  0  0  0
157158  3  0  0  0  0
159160  3  0  0  0  0
160161  4  0  0  0  0
161162  3  0  0  0  0
162163  4  0  0  0  0
163164  3  0  0  0  0
164165  4  0  0  0  0
165166  3  0  0  0  0
167168  3  0  0  0  0
168169  4  0  0  0  0
169170  3  0  0  0  0
170171  4  0  0  0  0
171172  3  0  0  0  0
172173  4  0  0  0  0
 97174  4  0  0  0  0
173174  3  0  0  0  0
158175  4  0  0  0  0
175176  4  0  0  0  0
176177  4  0  0  0  0
177178  2  0  0  0  0
178179  4  0  0  0  0
176180  4  0  0  0  0
179180  4  0  0  0  0
179181  4  0  0  0  0
181182  1  0  0  0  0
182183  4  0  0  0  0
183184  1  0  0  0  0
183185  4  0  0  0  0
185186  4  0  0  0  0
186187  1  0  0  0  0
186188  4  0  0  0  0
182189  4  0  0  0  0
188189  4  0  0  0  0
189190  1  0  0  0  0
181191  4  0  0  0  0
191192  1  0  0  0  0
192193  2  0  0  0  0
191194  4  0  0  0  0
193195  1  0  0  0  0
194195  4  0  0  0  0
159196  4  0  0  0  0
195196  4  0  0  0  0
196197  4  0  0  0  0
197198  4  0  0  0  0
198199  2  0  0  0  0
199200  4  0  0  0  0
197201  4  0  0  0  0
200201  4  0  0  0  0
200202  4  0  0  0  0
202203  1  0  0  0  0
203204  4  0  0  0  0
204205  1  0  0  0  0
204206  4  0  0  0  0
206207  4  0  0  0  0
207208  1  0  0  0  0
207209  4  0  0  0  0
203210  4  0  0  0  0
209210  4  0  0  0  0
210211  1  0  0  0  0
202212  4  0  0  0  0
212213  1  0  0  0  0
213214  2  0  0  0  0
175215  4  0  0  0  0
214215  1  0  0  0  0
212216  4  0  0  0  0
215216  4  0  0  0  0
177217  1  0  0  0  0
178218  1  0  0  0  0
180219  1  0  0  0  0
184220  1  0  0  0  0
184221  1  0  0  0  0
184222  1  0  0  0  0
185223  1  0  0  0  0
187224  1  0  0  0  0
187225  1  0  0  0  0
187226  1  0  0  0  0
188227  1  0  0  0  0
190228  1  0  0  0  0
190229  1  0  0  0  0
190230  1  0  0  0  0
192231  1  0  0  0  0
193232  1  0  0  0  0
198233  1  0  0  0  0
199234  1  0  0  0  0
201235  1  0  0  0  0
205236  1  0  0  0  0
205237  1  0  0  0  0
205238  1  0  0  0  0
206239  1  0  0  0  0
208240  1  0  0  0  0
208241  1  0  0  0  0
208242  1  0  0  0  0
209243  1  0  0  0  0
211244  1  0  0  0  0
211245  1  0  0  0  0
211246  1  0  0  0  0
213247  1  0  0  0  0
214248  1  0  0  0  0
166249  4  0  0  0  0
249250  4  0  0  0  0
250251  4  0  0  0  0
251252  2  0  0  0  0
252253  4  0  0  0  0
250254  4  0  0  0  0
253254  4  0  0  0  0
253255  4  0  0  0  0
255256  1  0  0  0  0
256257  4  0  0  0  0
257258  1  0  0  0  0
257259  4  0  0  0  0
259260  4  0  0  0  0
260261  1  0  0  0  0
260262  4  0  0  0  0
256263  4  0  0  0  0
262263  4  0  0  0  0
263264  1  0  0  0  0
255265  4  0  0  0  0
265266  1  0  0  0  0
266267  2  0  0  0  0
265268  4  0  0  0  0
267269  1  0  0  0  0
268269  4  0  0  0  0
167270  4  0  0  0  0
269270  4  0  0  0  0
270271  4  0  0  0  0
271272  4  0  0  0  0
272273  2  0  0  0  0
273274  4  0  0  0  0
271275  4  0  0  0  0
274275  4  0  0  0  0
274276  4  0  0  0  0
276277  1  0  0  0  0
277278  4  0  0  0  0
278279  1  0  0  0  0
278280  4  0  0  0  0
280281  4  0  0  0  0
281282  1  0  0  0  0
281283  4  0  0  0  0
277284  4  0  0  0  0
283284  4  0  0  0  0
284285  1  0  0  0  0
276286  4  0  0  0  0
286287  1  0  0  0  0
287288  2  0  0  0  0
249289  4  0  0  0  0
288289  1  0  0  0  0
286290  4  0  0  0  0
289290  4  0  0  0  0
251291  1  0  0  0  0
252292  1  0  0  0  0
254293  1  0  0  0  0
258294  1  0  0  0  0
258295  1  0  0  0  0
258296  1  0  0  0  0
259297  1  0  0  0  0
261298  1  0  0  0  0
261299  1  0  0  0  0
261300  1  0  0  0  0
262301  1  0  0  0  0
264302  1  0  0  0  0
264303  1  0  0  0  0
264304  1  0  0  0  0
266305  1  0  0  0  0
267306  1  0  0  0  0
272307  1  0  0  0  0
273308  1  0  0  0  0
275309  1  0  0  0  0
279310  1  0  0  0  0
279311  1  0  0  0  0
279312  1  0  0  0  0
280313  1  0  0  0  0
282314  1  0  0  0  0
282315  1  0  0  0  0
282316  1  0  0  0  0
283317  1  0  0  0  0
285318  1  0  0  0  0
285319  1  0  0  0  0
285320  1  0  0  0  0
287321  1  0  0  0  0
288322  1  0  0  0  0
M  END
