 xtb: 6.5.1 (b24c23e)
          07302207293D

187216  0     0  0            999 V2000
   31.6493    0.0280    0.0283 Cu  0  0  0  0  0  0  0  0  0  0  0  0
   28.2459    0.0972    0.0861 C   0  0  0  0  0  0  0  0  0  0  0  0
   28.8837    1.2107   -0.4399 C   0  0  0  0  0  0  0  0  0  0  0  0
   28.2113    2.3435   -1.0074 C   0  0  0  0  0  0  0  0  0  0  0  0
   29.1724    3.2095   -1.4151 C   0  0  0  0  0  0  0  0  0  0  0  0
   30.4413    2.6202   -1.0855 C   0  0  0  0  0  0  0  0  0  0  0  0
   30.2348    1.4034   -0.5011 N   0  0  0  0  0  0  0  0  0  0  0  0
   31.6872    3.2002   -1.3411 C   0  0  0  0  0  0  0  0  0  0  0  0
   31.7051    4.5572   -1.9374 C   0  0  0  0  0  0  0  0  0  0  0  0
   32.3207    4.7840   -3.1710 C   0  0  0  0  0  0  0  0  0  0  0  0
   32.3360    6.0471   -3.7354 C   0  0  0  0  0  0  0  0  0  0  0  0
   31.7450    7.1215   -3.0657 C   0  0  0  0  0  0  0  0  0  0  0  0
   31.7235    8.3785   -3.6452 N   0  0  0  0  0  0  0  0  0  0  0  0
   31.1243    6.9028   -1.8332 C   0  0  0  0  0  0  0  0  0  0  0  0
   31.1055    5.6345   -1.2804 C   0  0  0  0  0  0  0  0  0  0  0  0
   32.9176    2.5933   -1.0769 C   0  0  0  0  0  0  0  0  0  0  0  0
   34.1964    3.2185   -1.2594 C   0  0  0  0  0  0  0  0  0  0  0  0
   35.1392    2.3153   -0.8872 C   0  0  0  0  0  0  0  0  0  0  0  0
   33.1017    1.3274   -0.5859 N   0  0  0  0  0  0  0  0  0  0  0  0
   34.4440    1.1366   -0.4677 C   0  0  0  0  0  0  0  0  0  0  0  0
   35.0757   -0.0358   -0.0160 C   0  0  0  0  0  0  0  0  0  0  0  0
   34.4129   -1.1867    0.4460 C   0  0  0  0  0  0  0  0  0  0  0  0
   35.0741   -2.3935    0.8397 C   0  0  0  0  0  0  0  0  0  0  0  0
   34.1080   -3.2639    1.2301 C   0  0  0  0  0  0  0  0  0  0  0  0
   32.8494   -2.5895    1.0865 C   0  0  0  0  0  0  0  0  0  0  0  0
   33.0678   -1.3282    0.5976 N   0  0  0  0  0  0  0  0  0  0  0  0
   31.6047   -3.1492    1.3854 C   0  0  0  0  0  0  0  0  0  0  0  0
   31.5860   -4.5102    1.9725 C   0  0  0  0  0  0  0  0  0  0  0  0
   32.2280   -4.7713    3.1857 C   0  0  0  0  0  0  0  0  0  0  0  0
   32.2071   -6.0380    3.7418 C   0  0  0  0  0  0  0  0  0  0  0  0
   31.5519   -7.0820    3.0836 C   0  0  0  0  0  0  0  0  0  0  0  0
   31.4940   -8.3409    3.6567 N   0  0  0  0  0  0  0  0  0  0  0  0
   30.9052   -6.8290    1.8713 C   0  0  0  0  0  0  0  0  0  0  0  0
   30.9230   -5.5569    1.3271 C   0  0  0  0  0  0  0  0  0  0  0  0
   30.3754   -2.5178    1.1744 C   0  0  0  0  0  0  0  0  0  0  0  0
   29.0957   -3.0566    1.5457 C   0  0  0  0  0  0  0  0  0  0  0  0
   28.1574   -2.1496    1.1757 C   0  0  0  0  0  0  0  0  0  0  0  0
   28.8555   -1.0427    0.5887 C   0  0  0  0  0  0  0  0  0  0  0  0
   30.1989   -1.2907    0.6020 N   0  0  0  0  0  0  0  0  0  0  0  0
   27.1611    0.1195    0.1052 H   0  0  0  0  0  0  0  0  0  0  0  0
   27.1404    2.4444   -1.0902 H   0  0  0  0  0  0  0  0  0  0  0  0
   29.0398    4.1586   -1.9092 H   0  0  0  0  0  0  0  0  0  0  0  0
   32.7735    3.9535   -3.7017 H   0  0  0  0  0  0  0  0  0  0  0  0
   32.8073    6.2079   -4.6989 H   0  0  0  0  0  0  0  0  0  0  0  0
   32.4462    8.5451   -4.3272 H   0  0  0  0  0  0  0  0  0  0  0  0
   31.5881    9.1414   -3.0012 H   0  0  0  0  0  0  0  0  0  0  0  0
   30.6611    7.7323   -1.3099 H   0  0  0  0  0  0  0  0  0  0  0  0
   30.6384    5.4772   -0.3143 H   0  0  0  0  0  0  0  0  0  0  0  0
   34.3502    4.2265   -1.6093 H   0  0  0  0  0  0  0  0  0  0  0  0
   36.2113    2.4318   -0.8855 H   0  0  0  0  0  0  0  0  0  0  0  0
   36.1407   -2.5498    0.8083 H   0  0  0  0  0  0  0  0  0  0  0  0
   34.2327   -4.2798    1.5685 H   0  0  0  0  0  0  0  0  0  0  0  0
   32.7306   -3.9643    3.7075 H   0  0  0  0  0  0  0  0  0  0  0  0
   32.6993   -6.2254    4.6899 H   0  0  0  0  0  0  0  0  0  0  0  0
   32.2259   -8.5404    4.3198 H   0  0  0  0  0  0  0  0  0  0  0  0
   31.3124   -9.0938    3.0124 H   0  0  0  0  0  0  0  0  0  0  0  0
   30.3925   -7.6346    1.3570 H   0  0  0  0  0  0  0  0  0  0  0  0
   30.4341   -5.3731    0.3765 H   0  0  0  0  0  0  0  0  0  0  0  0
   28.9417   -4.0021    2.0404 H   0  0  0  0  0  0  0  0  0  0  0  0
   27.0868   -2.2069    1.2957 H   0  0  0  0  0  0  0  0  0  0  0  0
   58.5811   -0.0190    0.0504 Cu  0  0  0  0  0  0  0  0  0  0  0  0
   61.9852   -0.0099    0.1350 C   0  0  0  0  0  0  0  0  0  0  0  0
   61.3483   -1.0639    0.7729 C   0  0  0  0  0  0  0  0  0  0  0  0
   62.0218   -2.1617    1.4044 C   0  0  0  0  0  0  0  0  0  0  0  0
   61.0614   -2.9836    1.8964 C   0  0  0  0  0  0  0  0  0  0  0  0
   59.7917   -2.3868    1.5832 C   0  0  0  0  0  0  0  0  0  0  0  0
   59.9973   -1.2250    0.8959 N   0  0  0  0  0  0  0  0  0  0  0  0
   58.5461   -2.9277    1.9150 C   0  0  0  0  0  0  0  0  0  0  0  0
   58.5300   -4.1778    2.7115 C   0  0  0  0  0  0  0  0  0  0  0  0
   57.9265   -5.3340    2.2105 C   0  0  0  0  0  0  0  0  0  0  0  0
   57.9122   -6.5043    2.9483 C   0  0  0  0  0  0  0  0  0  0  0  0
   58.4920   -6.5391    4.2190 C   0  0  0  0  0  0  0  0  0  0  0  0
   58.5142   -7.7184    4.9442 N   0  0  0  0  0  0  0  0  0  0  0  0
   59.1012   -5.3885    4.7260 C   0  0  0  0  0  0  0  0  0  0  0  0
   59.1189   -4.2249    3.9775 C   0  0  0  0  0  0  0  0  0  0  0  0
   57.3149   -2.3759    1.5520 C   0  0  0  0  0  0  0  0  0  0  0  0
   56.0363   -2.8843    1.9600 C   0  0  0  0  0  0  0  0  0  0  0  0
   55.0926   -2.0707    1.4208 C   0  0  0  0  0  0  0  0  0  0  0  0
   57.1296   -1.2581    0.7816 N   0  0  0  0  0  0  0  0  0  0  0  0
   55.7870   -1.0562    0.6874 C   0  0  0  0  0  0  0  0  0  0  0  0
   55.1541   -0.0160   -0.0160 C   0  0  0  0  0  0  0  0  0  0  0  0
   55.8152    1.0179   -0.7024 C   0  0  0  0  0  0  0  0  0  0  0  0
   55.1517    2.0265   -1.4715 C   0  0  0  0  0  0  0  0  0  0  0  0
   56.1174    2.8324   -1.9827 C   0  0  0  0  0  0  0  0  0  0  0  0
   57.3781    2.3273   -1.5188 C   0  0  0  0  0  0  0  0  0  0  0  0
   57.1609    1.2164   -0.7466 N   0  0  0  0  0  0  0  0  0  0  0  0
   58.6233    2.8786   -1.8307 C   0  0  0  0  0  0  0  0  0  0  0  0
   58.6427    4.1205   -2.6401 C   0  0  0  0  0  0  0  0  0  0  0  0
   58.0169    5.2820   -2.1807 C   0  0  0  0  0  0  0  0  0  0  0  0
   58.0393    6.4445   -2.9307 C   0  0  0  0  0  0  0  0  0  0  0  0
   58.6796    6.4658   -4.1723 C   0  0  0  0  0  0  0  0  0  0  0  0
   58.7391    7.6379   -4.9071 N   0  0  0  0  0  0  0  0  0  0  0  0
   59.3107    5.3095   -4.6378 C   0  0  0  0  0  0  0  0  0  0  0  0
   59.2915    4.1540   -3.8770 C   0  0  0  0  0  0  0  0  0  0  0  0
   59.8536    2.3464   -1.4340 C   0  0  0  0  0  0  0  0  0  0  0  0
   61.1339    2.9494   -1.6863 C   0  0  0  0  0  0  0  0  0  0  0  0
   62.0729    2.1374   -1.1396 C   0  0  0  0  0  0  0  0  0  0  0  0
   61.3749    1.0386   -0.5371 C   0  0  0  0  0  0  0  0  0  0  0  0
   60.0310    1.1903   -0.7296 N   0  0  0  0  0  0  0  0  0  0  0  0
   63.0701   -0.0063    0.1629 H   0  0  0  0  0  0  0  0  0  0  0  0
   63.0929   -2.2833    1.4464 H   0  0  0  0  0  0  0  0  0  0  0  0
   61.1950   -3.9202    2.4136 H   0  0  0  0  0  0  0  0  0  0  0  0
   57.4824   -5.3178    1.2211 H   0  0  0  0  0  0  0  0  0  0  0  0
   57.4502   -7.3982    2.5436 H   0  0  0  0  0  0  0  0  0  0  0  0
   57.7963   -8.3815    4.6990 H   0  0  0  0  0  0  0  0  0  0  0  0
   58.6389   -7.6036    5.9374 H   0  0  0  0  0  0  0  0  0  0  0  0
   59.5560   -5.4103    5.7104 H   0  0  0  0  0  0  0  0  0  0  0  0
   59.5769   -3.3309    4.3864 H   0  0  0  0  0  0  0  0  0  0  0  0
   55.8830   -3.7425    2.5941 H   0  0  0  0  0  0  0  0  0  0  0  0
   54.0205   -2.1388    1.5142 H   0  0  0  0  0  0  0  0  0  0  0  0
   54.0841    2.0944   -1.6076 H   0  0  0  0  0  0  0  0  0  0  0  0
   55.9908    3.6839   -2.6317 H   0  0  0  0  0  0  0  0  0  0  0  0
   57.5261    5.2765   -1.2135 H   0  0  0  0  0  0  0  0  0  0  0  0
   57.5596    7.3430   -2.5579 H   0  0  0  0  0  0  0  0  0  0  0  0
   58.0140    8.3062   -4.7001 H   0  0  0  0  0  0  0  0  0  0  0  0
   58.9071    7.5132   -5.8927 H   0  0  0  0  0  0  0  0  0  0  0  0
   59.8123    5.3206   -5.5994 H   0  0  0  0  0  0  0  0  0  0  0  0
   59.7682    3.2555   -4.2536 H   0  0  0  0  0  0  0  0  0  0  0  0
   61.2878    3.8834   -2.2024 H   0  0  0  0  0  0  0  0  0  0  0  0
   63.1440    2.2659   -1.1273 H   0  0  0  0  0  0  0  0  0  0  0  0
   37.7034   -0.0693   -0.0302 C   0  0  0  0  0  0  0  0  0  0  0  0
   36.4814   -0.0571   -0.0261 C   0  0  0  0  0  0  0  0  0  0  0  0
   39.0530   -0.0754   -0.0329 C   0  0  0  0  0  0  0  0  0  0  0  0
   40.2751   -0.0740   -0.0336 C   0  0  0  0  0  0  0  0  0  0  0  0
   51.1759   -0.0058   -0.0331 C   0  0  0  0  0  0  0  0  0  0  0  0
   49.9539   -0.0084   -0.0259 C   0  0  0  0  0  0  0  0  0  0  0  0
   52.5259   -0.0061   -0.0347 C   0  0  0  0  0  0  0  0  0  0  0  0
   53.7479   -0.0097   -0.0317 C   0  0  0  0  0  0  0  0  0  0  0  0
   45.1139   -0.0361   -0.0105 Cu  0  0  0  0  0  0  0  0  0  0  0  0
   41.6805   -0.0671   -0.0370 C   0  0  0  0  0  0  0  0  0  0  0  0
   42.3198    1.1330   -0.3971 C   0  0  0  0  0  0  0  0  0  0  0  0
   41.6313    2.3443   -0.7261 C   0  0  0  0  0  0  0  0  0  0  0  0
   42.5803    3.2806   -0.9829 C   0  0  0  0  0  0  0  0  0  0  0  0
   43.8557    2.6425   -0.8240 C   0  0  0  0  0  0  0  0  0  0  0  0
   43.6633    1.3360   -0.4593 N   0  0  0  0  0  0  0  0  0  0  0  0
   45.0913    3.2728   -0.9879 C   0  0  0  0  0  0  0  0  0  0  0  0
   45.0832    4.7004   -1.3924 C   0  0  0  0  0  0  0  0  0  0  0  0
   44.5296    5.0950   -2.6122 C   0  0  0  0  0  0  0  0  0  0  0  0
   44.5262    6.4258   -2.9921 C   0  0  0  0  0  0  0  0  0  0  0  0
   45.0768    7.3962   -2.1514 C   0  0  0  0  0  0  0  0  0  0  0  0
   45.0320    8.7343   -2.5057 N   0  0  0  0  0  0  0  0  0  0  0  0
   45.6201    7.0111   -0.9233 C   0  0  0  0  0  0  0  0  0  0  0  0
   45.6285    5.6771   -0.5559 C   0  0  0  0  0  0  0  0  0  0  0  0
   46.3354    2.6663   -0.7984 C   0  0  0  0  0  0  0  0  0  0  0  0
   47.6014    3.3026   -1.0247 C   0  0  0  0  0  0  0  0  0  0  0  0
   48.5637    2.3844   -0.7514 C   0  0  0  0  0  0  0  0  0  0  0  0
   46.5461    1.3716   -0.4041 N   0  0  0  0  0  0  0  0  0  0  0  0
   47.8925    1.1809   -0.3638 C   0  0  0  0  0  0  0  0  0  0  0  0
   48.5481   -0.0119   -0.0096 C   0  0  0  0  0  0  0  0  0  0  0  0
   47.9087   -1.2112    0.3528 C   0  0  0  0  0  0  0  0  0  0  0  0
   48.5962   -2.4258    0.6708 C   0  0  0  0  0  0  0  0  0  0  0  0
   47.6467   -3.3553    0.9506 C   0  0  0  0  0  0  0  0  0  0  0  0
   46.3722   -2.7105    0.8135 C   0  0  0  0  0  0  0  0  0  0  0  0
   46.5651   -1.4071    0.4392 N   0  0  0  0  0  0  0  0  0  0  0  0
   45.1363   -3.3335    1.0060 C   0  0  0  0  0  0  0  0  0  0  0  0
   45.1467   -4.7483    1.4509 C   0  0  0  0  0  0  0  0  0  0  0  0
   44.5642   -5.7474    0.6675 C   0  0  0  0  0  0  0  0  0  0  0  0
   44.5752   -7.0686    1.0786 C   0  0  0  0  0  0  0  0  0  0  0  0
   45.1713   -7.4202    2.2922 C   0  0  0  0  0  0  0  0  0  0  0  0
   45.1421   -8.7337    2.7298 N   0  0  0  0  0  0  0  0  0  0  0  0
   45.7449   -6.4252    3.0878 C   0  0  0  0  0  0  0  0  0  0  0  0
   45.7371   -5.1078    2.6648 C   0  0  0  0  0  0  0  0  0  0  0  0
   43.8920   -2.7282    0.8125 C   0  0  0  0  0  0  0  0  0  0  0  0
   42.6255   -3.3561    1.0586 C   0  0  0  0  0  0  0  0  0  0  0  0
   41.6639   -2.4457    0.7581 C   0  0  0  0  0  0  0  0  0  0  0  0
   42.3360   -1.2534    0.3393 C   0  0  0  0  0  0  0  0  0  0  0  0
   43.6822   -1.4439    0.3843 N   0  0  0  0  0  0  0  0  0  0  0  0
   40.5591    2.4579   -0.7456 H   0  0  0  0  0  0  0  0  0  0  0  0
   42.4322    4.3161   -1.2434 H   0  0  0  0  0  0  0  0  0  0  0  0
   44.1151    4.3455   -3.2777 H   0  0  0  0  0  0  0  0  0  0  0  0
   44.0994    6.7194   -3.9451 H   0  0  0  0  0  0  0  0  0  0  0  0
   44.9477    8.9087   -3.4945 H   0  0  0  0  0  0  0  0  0  0  0  0
   45.7144    9.3172   -2.0477 H   0  0  0  0  0  0  0  0  0  0  0  0
   46.0362    7.7617   -0.2601 H   0  0  0  0  0  0  0  0  0  0  0  0
   46.0457    5.3862    0.4020 H   0  0  0  0  0  0  0  0  0  0  0  0
   47.7343    4.3171   -1.3643 H   0  0  0  0  0  0  0  0  0  0  0  0
   49.6341    2.5015   -0.8102 H   0  0  0  0  0  0  0  0  0  0  0  0
   49.6678   -2.5459    0.6691 H   0  0  0  0  0  0  0  0  0  0  0  0
   47.7941   -4.3911    1.2102 H   0  0  0  0  0  0  0  0  0  0  0  0
   44.1157   -5.4853   -0.2846 H   0  0  0  0  0  0  0  0  0  0  0  0
   44.1248   -7.8360    0.4584 H   0  0  0  0  0  0  0  0  0  0  0  0
   45.8526   -8.9731    3.4030 H   0  0  0  0  0  0  0  0  0  0  0  0
   45.0249   -9.4209    2.0023 H   0  0  0  0  0  0  0  0  0  0  0  0
   46.1967   -6.6901    4.0376 H   0  0  0  0  0  0  0  0  0  0  0  0
   46.1764   -4.3400    3.2924 H   0  0  0  0  0  0  0  0  0  0  0  0
   42.4907   -4.3592    1.4294 H   0  0  0  0  0  0  0  0  0  0  0  0
   40.5935   -2.5599    0.8211 H   0  0  0  0  0  0  0  0  0  0  0  0
  2  3  4  0  0  0  0
  3  4  4  0  0  0  0
  4  5  2  0  0  0  0
  5  6  4  0  0  0  0
  1  7  1  0  0  0  0
  3  7  4  0  0  0  0
  6  7  4  0  0  0  0
  6  8  4  0  0  0  0
  8  9  1  0  0  0  0
  9 10  4  0  0  0  0
 10 11  4  0  0  0  0
 11 12  4  0  0  0  0
 12 13  1  0  0  0  0
 12 14  4  0  0  0  0
  9 15  4  0  0  0  0
 14 15  4  0  0  0  0
  8 16  4  0  0  0  0
 16 17  4  0  0  0  0
 17 18  2  0  0  0  0
  1 19  1  0  0  0  0
 16 19  4  0  0  0  0
 18 20  4  0  0  0  0
 19 20  4  0  0  0  0
 20 21  4  0  0  0  0
 21 22  4  0  0  0  0
 22 23  4  0  0  0  0
 23 24  2  0  0  0  0
 24 25  4  0  0  0  0
  1 26  1  0  0  0  0
 22 26  4  0  0  0  0
 25 26  4  0  0  0  0
 25 27  4  0  0  0  0
 27 28  1  0  0  0  0
 28 29  4  0  0  0  0
 29 30  4  0  0  0  0
 30 31  4  0  0  0  0
 31 32  1  0  0  0  0
 31 33  4  0  0  0  0
 28 34  4  0  0  0  0
 33 34  4  0  0  0  0
 27 35  4  0  0  0  0
 35 36  4  0  0  0  0
 36 37  2  0  0  0  0
  2 38  4  0  0  0  0
 37 38  4  0  0  0  0
  1 39  1  0  0  0  0
 35 39  4  0  0  0  0
 38 39  4  0  0  0  0
  2 40  1  0  0  0  0
  4 41  1  0  0  0  0
  5 42  1  0  0  0  0
 10 43  1  0  0  0  0
 11 44  1  0  0  0  0
 13 45  1  0  0  0  0
 13 46  1  0  0  0  0
 14 47  1  0  0  0  0
 15 48  1  0  0  0  0
 17 49  1  0  0  0  0
 18 50  1  0  0  0  0
 23 51  1  0  0  0  0
 24 52  1  0  0  0  0
 29 53  1  0  0  0  0
 30 54  1  0  0  0  0
 32 55  1  0  0  0  0
 32 56  1  0  0  0  0
 33 57  1  0  0  0  0
 34 58  1  0  0  0  0
 36 59  1  0  0  0  0
 37 60  1  0  0  0  0
 62 63  4  0  0  0  0
 63 64  1  0  0  0  0
 64 65  2  0  0  0  0
 65 66  4  0  0  0  0
 61 67  1  0  0  0  0
 63 67  4  0  0  0  0
 66 67  4  0  0  0  0
 66 68  4  0  0  0  0
 68 69  1  0  0  0  0
 69 70  4  0  0  0  0
 70 71  4  0  0  0  0
 71 72  4  0  0  0  0
 72 73  1  0  0  0  0
 72 74  4  0  0  0  0
 69 75  4  0  0  0  0
 74 75  4  0  0  0  0
 68 76  4  0  0  0  0
 76 77  4  0  0  0  0
 77 78  2  0  0  0  0
 61 79  1  0  0  0  0
 76 79  4  0  0  0  0
 78 80  4  0  0  0  0
 79 80  4  0  0  0  0
 80 81  4  0  0  0  0
 81 82  4  0  0  0  0
 82 83  4  0  0  0  0
 83 84  2  0  0  0  0
 84 85  4  0  0  0  0
 61 86  1  0  0  0  0
 82 86  4  0  0  0  0
 85 86  4  0  0  0  0
 85 87  4  0  0  0  0
 87 88  1  0  0  0  0
 88 89  4  0  0  0  0
 89 90  4  0  0  0  0
 90 91  4  0  0  0  0
 91 92  1  0  0  0  0
 91 93  4  0  0  0  0
 88 94  4  0  0  0  0
 93 94  4  0  0  0  0
 87 95  4  0  0  0  0
 95 96  4  0  0  0  0
 96 97  2  0  0  0  0
 62 98  4  0  0  0  0
 97 98  1  0  0  0  0
 61 99  1  0  0  0  0
 95 99  4  0  0  0  0
 98 99  4  0  0  0  0
 62100  1  0  0  0  0
 64101  1  0  0  0  0
 65102  1  0  0  0  0
 70103  1  0  0  0  0
 71104  1  0  0  0  0
 73105  1  0  0  0  0
 73106  1  0  0  0  0
 74107  1  0  0  0  0
 75108  1  0  0  0  0
 77109  1  0  0  0  0
 78110  1  0  0  0  0
 83111  1  0  0  0  0
 84112  1  0  0  0  0
 89113  1  0  0  0  0
 90114  1  0  0  0  0
 92115  1  0  0  0  0
 92116  1  0  0  0  0
 93117  1  0  0  0  0
 94118  1  0  0  0  0
 96119  1  0  0  0  0
 97120  1  0  0  0  0
 21122  4  0  0  0  0
121122  3  0  0  0  0
121123  4  0  0  0  0
123124  3  0  0  0  0
125126  3  0  0  0  0
125127  4  0  0  0  0
 81128  4  0  0  0  0
127128  3  0  0  0  0
124130  4  0  0  0  0
130131  4  0  0  0  0
131132  4  0  0  0  0
132133  2  0  0  0  0
133134  4  0  0  0  0
129135  1  0  0  0  0
131135  4  0  0  0  0
134135  4  0  0  0  0
134136  4  0  0  0  0
136137  1  0  0  0  0
137138  4  0  0  0  0
138139  4  0  0  0  0
139140  4  0  0  0  0
140141  1  0  0  0  0
140142  4  0  0  0  0
137143  4  0  0  0  0
142143  4  0  0  0  0
136144  4  0  0  0  0
144145  4  0  0  0  0
145146  2  0  0  0  0
129147  1  0  0  0  0
144147  4  0  0  0  0
146148  4  0  0  0  0
147148  4  0  0  0  0
126149  4  0  0  0  0
148149  4  0  0  0  0
149150  4  0  0  0  0
150151  4  0  0  0  0
151152  2  0  0  0  0
152153  4  0  0  0  0
129154  1  0  0  0  0
150154  4  0  0  0  0
153154  4  0  0  0  0
153155  4  0  0  0  0
155156  1  0  0  0  0
156157  4  0  0  0  0
157158  4  0  0  0  0
158159  4  0  0  0  0
159160  1  0  0  0  0
159161  4  0  0  0  0
156162  4  0  0  0  0
161162  4  0  0  0  0
155163  4  0  0  0  0
163164  4  0  0  0  0
164165  2  0  0  0  0
130166  4  0  0  0  0
165166  4  0  0  0  0
129167  1  0  0  0  0
163167  4  0  0  0  0
166167  4  0  0  0  0
132168  1  0  0  0  0
133169  1  0  0  0  0
138170  1  0  0  0  0
139171  1  0  0  0  0
141172  1  0  0  0  0
141173  1  0  0  0  0
142174  1  0  0  0  0
143175  1  0  0  0  0
145176  1  0  0  0  0
146177  1  0  0  0  0
151178  1  0  0  0  0
152179  1  0  0  0  0
157180  1  0  0  0  0
158181  1  0  0  0  0
160182  1  0  0  0  0
160183  1  0  0  0  0
161184  1  0  0  0  0
162185  1  0  0  0  0
164186  1  0  0  0  0
165187  1  0  0  0  0
M  END
