 xtb: 6.5.1 (b24c23e)
          07292218053D

118137  0     0  0            999 V2000
   15.2265   -0.0543   -0.0349 Fe  0  0  0  0  0  0  0  0  0  0  0  0
   11.8457   -0.0721   -0.1539 C   0  0  0  0  0  0  0  0  0  0  0  0
   12.4940   -1.2812   -0.0005 C   0  0  0  0  0  0  0  0  0  0  0  0
   11.8211   -2.5351    0.1567 C   0  0  0  0  0  0  0  0  0  0  0  0
   12.7785   -3.4931    0.1489 C   0  0  0  0  0  0  0  0  0  0  0  0
   14.0347   -2.8241   -0.0339 C   0  0  0  0  0  0  0  0  0  0  0  0
   13.8496   -1.4678   -0.0671 N   0  0  0  0  0  0  0  0  0  0  0  0
   15.2477   -3.4728   -0.2414 C   0  0  0  0  0  0  0  0  0  0  0  0
   15.2628   -4.9500   -0.3354 C   0  0  0  0  0  0  0  0  0  0  0  0
   14.5422   -5.6042   -1.2615 C   0  0  0  0  0  0  0  0  0  0  0  0
   14.5316   -7.1047   -1.3748 C   0  0  0  0  0  0  0  0  0  0  0  0
   15.6177   -7.7073   -0.6002 N   0  0  0  0  0  0  0  0  0  0  0  0
   16.2089   -7.0357    0.4337 C   0  0  0  0  0  0  0  0  0  0  0  0
   16.0967   -5.7030    0.5875 C   0  0  0  0  0  0  0  0  0  0  0  0
   16.4493   -2.7868   -0.3764 C   0  0  0  0  0  0  0  0  0  0  0  0
   17.7025   -3.4116   -0.6778 C   0  0  0  0  0  0  0  0  0  0  0  0
   18.6476   -2.4420   -0.6174 C   0  0  0  0  0  0  0  0  0  0  0  0
   16.6257   -1.4385   -0.1851 N   0  0  0  0  0  0  0  0  0  0  0  0
   17.9714   -1.2292   -0.2795 C   0  0  0  0  0  0  0  0  0  0  0  0
   18.6302   -0.0313    0.0184 C   0  0  0  0  0  0  0  0  0  0  0  0
   17.9458    1.1532    0.3138 C   0  0  0  0  0  0  0  0  0  0  0  0
   18.5942    2.3674    0.6977 C   0  0  0  0  0  0  0  0  0  0  0  0
   17.6326    3.3204    0.7596 C   0  0  0  0  0  0  0  0  0  0  0  0
   16.3984    2.6855    0.4057 C   0  0  0  0  0  0  0  0  0  0  0  0
   16.6004    1.3444    0.1880 N   0  0  0  0  0  0  0  0  0  0  0  0
   15.1950    3.3594    0.2354 C   0  0  0  0  0  0  0  0  0  0  0  0
   15.1857    4.8339    0.3677 C   0  0  0  0  0  0  0  0  0  0  0  0
   14.4185    5.4535    1.2797 C   0  0  0  0  0  0  0  0  0  0  0  0
   14.3851    6.9498    1.4355 C   0  0  0  0  0  0  0  0  0  0  0  0
   15.4864    7.5888    0.7126 N   0  0  0  0  0  0  0  0  0  0  0  0
   16.1283    6.9516   -0.3126 C   0  0  0  0  0  0  0  0  0  0  0  0
   16.0448    5.6214   -0.5018 C   0  0  0  0  0  0  0  0  0  0  0  0
   14.0040    2.7029   -0.0571 C   0  0  0  0  0  0  0  0  0  0  0  0
   12.7557    3.3635   -0.3100 C   0  0  0  0  0  0  0  0  0  0  0  0
   11.8148    2.3956   -0.4207 C   0  0  0  0  0  0  0  0  0  0  0  0
   12.4900    1.1450   -0.2461 C   0  0  0  0  0  0  0  0  0  0  0  0
   13.8347    1.3445   -0.0734 N   0  0  0  0  0  0  0  0  0  0  0  0
   10.7623   -0.0781   -0.1961 H   0  0  0  0  0  0  0  0  0  0  0  0
   10.7535   -2.6485    0.2606 H   0  0  0  0  0  0  0  0  0  0  0  0
   12.6562   -4.5585    0.2592 H   0  0  0  0  0  0  0  0  0  0  0  0
   13.9209   -5.0774   -1.9763 H   0  0  0  0  0  0  0  0  0  0  0  0
   14.6519   -7.4066   -2.4247 H   0  0  0  0  0  0  0  0  0  0  0  0
   13.5594   -7.5048   -1.0322 H   0  0  0  0  0  0  0  0  0  0  0  0
   15.5676   -8.7122   -0.5229 H   0  0  0  0  0  0  0  0  0  0  0  0
   16.8339   -7.6481    1.0756 H   0  0  0  0  0  0  0  0  0  0  0  0
   16.6091   -5.1854    1.3859 H   0  0  0  0  0  0  0  0  0  0  0  0
   17.8328   -4.4563   -0.9093 H   0  0  0  0  0  0  0  0  0  0  0  0
   19.7089   -2.5279   -0.7844 H   0  0  0  0  0  0  0  0  0  0  0  0
   19.6491    2.4645    0.8964 H   0  0  0  0  0  0  0  0  0  0  0  0
   17.7403    4.3604    1.0218 H   0  0  0  0  0  0  0  0  0  0  0  0
   13.7742    4.8996    1.9524 H   0  0  0  0  0  0  0  0  0  0  0  0
   14.4691    7.2221    2.4971 H   0  0  0  0  0  0  0  0  0  0  0  0
   13.4187    7.3479    1.0747 H   0  0  0  0  0  0  0  0  0  0  0  0
   15.4208    8.5942    0.6559 H   0  0  0  0  0  0  0  0  0  0  0  0
   16.7668    7.5893   -0.9155 H   0  0  0  0  0  0  0  0  0  0  0  0
   16.5963    5.1314   -1.2915 H   0  0  0  0  0  0  0  0  0  0  0  0
   12.6282    4.4306   -0.3947 H   0  0  0  0  0  0  0  0  0  0  0  0
   10.7564    2.5003   -0.6008 H   0  0  0  0  0  0  0  0  0  0  0  0
   26.0639    0.0606   -0.0224 Fe  0  0  0  0  0  0  0  0  0  0  0  0
   29.4446    0.1034   -0.1348 C   0  0  0  0  0  0  0  0  0  0  0  0
   28.7964    1.2514    0.2745 C   0  0  0  0  0  0  0  0  0  0  0  0
   29.4693    2.4423    0.6972 C   0  0  0  0  0  0  0  0  0  0  0  0
   28.5119    3.3798    0.8952 C   0  0  0  0  0  0  0  0  0  0  0  0
   27.2557    2.7656    0.5731 C   0  0  0  0  0  0  0  0  0  0  0  0
   27.4407    1.4479    0.2495 N   0  0  0  0  0  0  0  0  0  0  0  0
   26.0427    3.4437    0.5097 C   0  0  0  0  0  0  0  0  0  0  0  0
   26.0276    4.9066    0.7349 C   0  0  0  0  0  0  0  0  0  0  0  0
   26.7482    5.7443   -0.0292 C   0  0  0  0  0  0  0  0  0  0  0  0
   26.7588    7.2342    0.1822 C   0  0  0  0  0  0  0  0  0  0  0  0
   25.6727    7.6565    1.0681 N   0  0  0  0  0  0  0  0  0  0  0  0
   25.0815    6.7786    1.9337 C   0  0  0  0  0  0  0  0  0  0  0  0
   25.1937    5.4440    1.7979 C   0  0  0  0  0  0  0  0  0  0  0  0
   24.8411    2.8027    0.2305 C   0  0  0  0  0  0  0  0  0  0  0  0
   23.5879    3.4776    0.0703 C   0  0  0  0  0  0  0  0  0  0  0  0
   22.6428    2.5175   -0.0789 C   0  0  0  0  0  0  0  0  0  0  0  0
   24.6647    1.4447    0.1280 N   0  0  0  0  0  0  0  0  0  0  0  0
   23.3189    1.2605   -0.0092 C   0  0  0  0  0  0  0  0  0  0  0  0
   22.6602    0.0266    0.0247 C   0  0  0  0  0  0  0  0  0  0  0  0
   23.3446   -1.1937    0.0590 C   0  0  0  0  0  0  0  0  0  0  0  0
   22.6962   -2.4620    0.1733 C   0  0  0  0  0  0  0  0  0  0  0  0
   23.6578   -3.4061    0.0292 C   0  0  0  0  0  0  0  0  0  0  0  0
   24.8920   -2.7100   -0.1802 C   0  0  0  0  0  0  0  0  0  0  0  0
   24.6899   -1.3534   -0.1050 N   0  0  0  0  0  0  0  0  0  0  0  0
   26.0953   -3.3317   -0.4911 C   0  0  0  0  0  0  0  0  0  0  0  0
   26.1046   -4.8001   -0.6784 C   0  0  0  0  0  0  0  0  0  0  0  0
   26.8719   -5.6010    0.0793 C   0  0  0  0  0  0  0  0  0  0  0  0
   26.9053   -7.0960   -0.0897 C   0  0  0  0  0  0  0  0  0  0  0  0
   25.8040   -7.5649   -0.9328 N   0  0  0  0  0  0  0  0  0  0  0  0
   25.1621   -6.7225   -1.7974 C   0  0  0  0  0  0  0  0  0  0  0  0
   25.2456   -5.3827   -1.6967 C   0  0  0  0  0  0  0  0  0  0  0  0
   27.2863   -2.6276   -0.6360 C   0  0  0  0  0  0  0  0  0  0  0  0
   28.5347   -3.2186   -1.0247 C   0  0  0  0  0  0  0  0  0  0  0  0
   29.4756   -2.2494   -0.9251 C   0  0  0  0  0  0  0  0  0  0  0  0
   28.8004   -1.0655   -0.4862 C   0  0  0  0  0  0  0  0  0  0  0  0
   27.4557   -1.2974   -0.3603 N   0  0  0  0  0  0  0  0  0  0  0  0
   30.5281    0.1184   -0.1747 H   0  0  0  0  0  0  0  0  0  0  0  0
   30.5369    2.5309    0.8230 H   0  0  0  0  0  0  0  0  0  0  0  0
   28.6341    4.3966    1.2317 H   0  0  0  0  0  0  0  0  0  0  0  0
   27.3695    5.3833   -0.8404 H   0  0  0  0  0  0  0  0  0  0  0  0
   26.6386    7.7544   -0.7784 H   0  0  0  0  0  0  0  0  0  0  0  0
   27.7310    7.5514    0.6027 H   0  0  0  0  0  0  0  0  0  0  0  0
   25.7228    8.6214    1.3592 H   0  0  0  0  0  0  0  0  0  0  0  0
   24.4564    7.2390    2.6921 H   0  0  0  0  0  0  0  0  0  0  0  0
   24.6813    4.7670    2.4665 H   0  0  0  0  0  0  0  0  0  0  0  0
   23.4575    4.5476    0.0683 H   0  0  0  0  0  0  0  0  0  0  0  0
   21.5814    2.6374   -0.2236 H   0  0  0  0  0  0  0  0  0  0  0  0
   21.6413   -2.5994    0.3466 H   0  0  0  0  0  0  0  0  0  0  0  0
   23.5501   -4.4781    0.0620 H   0  0  0  0  0  0  0  0  0  0  0  0
   27.5162   -5.2044    0.8552 H   0  0  0  0  0  0  0  0  0  0  0  0
   26.8213   -7.5897    0.8887 H   0  0  0  0  0  0  0  0  0  0  0  0
   27.8717   -7.4073   -0.5276 H   0  0  0  0  0  0  0  0  0  0  0  0
   25.8696   -8.5347   -1.2041 H   0  0  0  0  0  0  0  0  0  0  0  0
   24.5236   -7.2159   -2.5231 H   0  0  0  0  0  0  0  0  0  0  0  0
   24.6941   -4.7346   -2.3628 H   0  0  0  0  0  0  0  0  0  0  0  0
   28.6621   -4.2426   -1.3366 H   0  0  0  0  0  0  0  0  0  0  0  0
   30.5339   -2.3130   -1.1235 H   0  0  0  0  0  0  0  0  0  0  0  0
   20.0365   -0.0151    0.0267 C   0  0  0  0  0  0  0  0  0  0  0  0
   21.2539    0.0090    0.0293 C   0  0  0  0  0  0  0  0  0  0  0  0
  2  3  4  0  0  0  0
  3  4  4  0  0  0  0
  4  5  2  0  0  0  0
  5  6  4  0  0  0  0
  1  7  1  0  0  0  0
  3  7  4  0  0  0  0
  6  7  4  0  0  0  0
  6  8  4  0  0  0  0
  8  9  1  0  0  0  0
  9 10  2  0  0  0  0
 10 11  1  0  0  0  0
 11 12  1  0  0  0  0
 12 13  1  0  0  0  0
  9 14  1  0  0  0  0
 13 14  2  0  0  0  0
  8 15  4  0  0  0  0
 15 16  4  0  0  0  0
 16 17  2  0  0  0  0
  1 18  1  0  0  0  0
 15 18  4  0  0  0  0
 17 19  4  0  0  0  0
 18 19  4  0  0  0  0
 19 20  4  0  0  0  0
 20 21  4  0  0  0  0
 21 22  4  0  0  0  0
 22 23  2  0  0  0  0
 23 24  4  0  0  0  0
  1 25  1  0  0  0  0
 21 25  4  0  0  0  0
 24 25  4  0  0  0  0
 24 26  4  0  0  0  0
 26 27  1  0  0  0  0
 27 28  2  0  0  0  0
 28 29  1  0  0  0  0
 29 30  1  0  0  0  0
 30 31  1  0  0  0  0
 27 32  1  0  0  0  0
 31 32  2  0  0  0  0
 26 33  4  0  0  0  0
 33 34  4  0  0  0  0
 34 35  2  0  0  0  0
  2 36  4  0  0  0  0
 35 36  4  0  0  0  0
  1 37  1  0  0  0  0
 33 37  4  0  0  0  0
 36 37  4  0  0  0  0
  2 38  1  0  0  0  0
  4 39  1  0  0  0  0
  5 40  1  0  0  0  0
 10 41  1  0  0  0  0
 11 42  1  0  0  0  0
 11 43  1  0  0  0  0
 12 44  1  0  0  0  0
 13 45  1  0  0  0  0
 14 46  1  0  0  0  0
 16 47  1  0  0  0  0
 17 48  1  0  0  0  0
 22 49  1  0  0  0  0
 23 50  1  0  0  0  0
 28 51  1  0  0  0  0
 29 52  1  0  0  0  0
 29 53  1  0  0  0  0
 30 54  1  0  0  0  0
 31 55  1  0  0  0  0
 32 56  1  0  0  0  0
 34 57  1  0  0  0  0
 35 58  1  0  0  0  0
 60 61  4  0  0  0  0
 61 62  4  0  0  0  0
 62 63  2  0  0  0  0
 63 64  4  0  0  0  0
 59 65  1  0  0  0  0
 61 65  4  0  0  0  0
 64 65  4  0  0  0  0
 64 66  4  0  0  0  0
 66 67  1  0  0  0  0
 67 68  2  0  0  0  0
 68 69  1  0  0  0  0
 69 70  1  0  0  0  0
 70 71  1  0  0  0  0
 67 72  1  0  0  0  0
 71 72  2  0  0  0  0
 66 73  4  0  0  0  0
 73 74  4  0  0  0  0
 74 75  2  0  0  0  0
 59 76  1  0  0  0  0
 73 76  4  0  0  0  0
 75 77  4  0  0  0  0
 76 77  4  0  0  0  0
 77 78  4  0  0  0  0
 78 79  4  0  0  0  0
 79 80  4  0  0  0  0
 80 81  2  0  0  0  0
 81 82  4  0  0  0  0
 59 83  1  0  0  0  0
 79 83  4  0  0  0  0
 82 83  4  0  0  0  0
 82 84  4  0  0  0  0
 84 85  1  0  0  0  0
 85 86  2  0  0  0  0
 86 87  1  0  0  0  0
 87 88  1  0  0  0  0
 88 89  1  0  0  0  0
 85 90  1  0  0  0  0
 89 90  2  0  0  0  0
 84 91  4  0  0  0  0
 91 92  4  0  0  0  0
 92 93  2  0  0  0  0
 60 94  4  0  0  0  0
 93 94  4  0  0  0  0
 59 95  1  0  0  0  0
 91 95  4  0  0  0  0
 94 95  4  0  0  0  0
 60 96  1  0  0  0  0
 62 97  1  0  0  0  0
 63 98  1  0  0  0  0
 68 99  1  0  0  0  0
 69100  1  0  0  0  0
 69101  1  0  0  0  0
 70102  1  0  0  0  0
 71103  1  0  0  0  0
 72104  1  0  0  0  0
 74105  1  0  0  0  0
 75106  1  0  0  0  0
 80107  1  0  0  0  0
 81108  1  0  0  0  0
 86109  1  0  0  0  0
 87110  1  0  0  0  0
 87111  1  0  0  0  0
 88112  1  0  0  0  0
 89113  1  0  0  0  0
 90114  1  0  0  0  0
 92115  1  0  0  0  0
 93116  1  0  0  0  0
 20117  1  0  0  0  0
 78118  1  0  0  0  0
117118  3  0  0  0  0
M  END
