302

C 49.604360 0.070555 -0.013456
C 50.328761 -0.018057 1.363647
C 49.708867 -0.050921 2.592638
C 50.729549 -0.168621 3.570029
C 51.940920 -0.202289 2.904022
N 51.684120 -0.088213 1.561137
C 53.372905 -0.380179 3.561506
C 53.426120 -0.651755 5.017443
C 53.624564 0.386468 5.925564
C 53.659393 0.128746 7.304011
C 53.483076 -1.165658 7.831703
N 53.522403 -1.413483 9.216829
C 53.225557 -0.295582 10.109037
C 53.109189 -2.729143 9.694982
C 53.310045 -2.196244 6.886830
C 53.274180 -1.947444 5.506236
C 54.500643 -0.310942 2.803012
C 55.812171 -0.537751 3.374132
C 56.714485 -0.435401 2.406079
N 54.692600 -0.058805 1.468970
C 56.029530 -0.118889 1.168081
C 56.702308 0.060700 -0.000126
C 55.929902 0.452217 -1.332681
C 56.496003 1.009109 -2.464408
C 55.470315 1.157317 -3.429016
C 54.300555 0.701654 -2.856563
N 54.582447 0.312216 -1.567646
C 52.876720 0.657004 -3.558152
C 52.828023 0.805553 -5.029546
C 52.652365 2.060296 -5.610580
C 52.645401 2.201970 -7.005344
C 52.824798 1.105548 -7.871819
N 52.825050 1.271433 -9.271421
C 53.085967 0.101197 -10.104260
C 53.379399 2.529894 -9.770140
C 52.961644 -0.153148 -7.255606
C 52.973978 -0.303158 -5.860625
C 51.754477 0.490026 -2.811227
C 50.425925 0.446990 -3.396983
C 49.542237 0.290478 -2.416081
C 50.270609 0.223113 -1.172887
N 51.595227 0.337199 -1.461547
H 48.522896 -0.000792 -0.022120
H 48.644337 -0.005744 2.765498
H 50.595916 -0.233397 4.640111
H 52.388879 -0.057309 0.828553
H 53.760263 1.398283 5.550192
H 53.837102 0.982620 7.948308
H 52.243356 0.139282 9.890582
H 53.215505 -0.619782 11.156276
H 53.996135 0.480007 10.046042
H 52.061927 -2.931541 9.444253
H 53.747922 -3.520848 9.288645
H 53.207004 -2.797638 10.784460
H 53.194278 -3.230804 7.189606
H 53.133404 -2.765123 4.802894
H 56.029822 -0.765149 4.402725
H 57.772471 -0.562273 2.545076
H 57.535270 1.270772 -2.592450
H 55.574256 1.549839 -4.429690
H 53.889402 0.009615 -0.887621
H 52.518817 2.927989 -4.968099
H 52.481349 3.202400 -7.390735
H 52.982282 0.352949 -11.166113
H 54.102035 -0.278675 -9.949750
H 52.359705 -0.696270 -9.911866
H 52.734475 3.378716 -9.521749
H 53.450763 2.519876 -10.863516
H 54.387405 2.705747 -9.377588
H 53.079667 -1.061208 -7.835868
H 53.098874 -1.287393 -5.413548
H 50.191108 0.529229 -4.443372
H 48.474718 0.223744 -2.524088
C 101.200430 0.067157 0.015143
C 100.476029 0.303691 -1.344385
C 101.095923 0.559716 -2.546862
C 100.075241 0.674311 -3.524622
C 98.863870 0.485524 -2.885045
N 99.120670 0.281763 -1.552816
C 97.431885 0.466646 -3.565908
C 97.378670 0.543781 -5.044947
C 97.180226 1.765889 -5.684512
C 97.145397 1.838336 -7.084973
C 97.321714 0.703615 -7.901274
N 97.282387 0.787248 -9.305909
C 97.579232 2.083087 -9.911335
C 97.695601 -0.379745 -10.079031
C 97.494745 -0.519680 -7.224190
C 97.530610 -0.601303 -5.823734
C 96.304147 0.356228 -2.812307
C 94.992619 0.269556 -3.420672
C 94.090305 0.142225 -2.455587
N 96.112190 0.288757 -1.456324
C 94.775260 0.159841 -1.177891
C 94.102482 0.060700 -0.000126
C 94.874888 0.129076 1.387070
C 94.308787 0.405282 2.617780
C 95.334475 0.323340 3.590261
C 96.504235 0.014498 2.926975
N 96.222343 -0.062083 1.582690
C 97.928070 -0.193303 3.598570
C 97.976767 -0.393662 5.063808
C 98.152425 0.690002 5.922674
C 98.159389 0.500915 7.311805
C 97.979992 -0.768013 7.897247
N 97.979740 -0.934696 9.296754
C 97.718823 -2.267502 9.832201
C 97.425391 0.171871 10.076468
C 97.843146 -1.847278 7.003255
C 97.830812 -1.666243 5.611960
C 99.050313 -0.180615 2.833314
C 100.378865 -0.359706 3.392678
C 101.262553 -0.282019 2.402411
C 100.534181 -0.056206 1.178042
N 99.209563 -0.012935 1.485398
H 102.281894 -0.004233 0.006848
H 102.160453 0.644138 -2.704324
H 100.208874 0.862077 -4.580092
H 98.415911 0.140150 -0.833386
H 97.044527 2.661579 -5.082506
H 96.967688 2.819408 -7.511255
H 98.561434 2.454656 -9.597065
H 97.589285 2.013298 -11.005384
H 96.808655 2.822323 -9.668360
H 98.742863 -0.635258 -9.882708
H 97.056868 -1.244620 -9.869517
H 97.597786 -0.191050 -11.154228
H 97.610512 -1.454493 -7.760952
H 97.671386 -1.561023 -5.331569
H 94.774968 0.289505 -4.473913
H 93.032319 0.051455 -2.620443
H 93.269520 0.629658 2.803569
H 95.230534 0.470459 4.655052
H 96.915388 -0.196919 0.850692
H 98.285973 1.684084 5.501395
H 98.323441 1.383190 7.920885
H 97.822508 -2.271568 10.923482
H 96.702755 -2.600594 9.592982
H 98.445085 -2.997686 9.458302
H 98.070315 1.055264 10.033886
H 97.354027 -0.094065 11.137057
H 96.417385 0.434810 9.736049
H 97.725123 -2.866023 7.354589
H 97.705916 -2.518319 4.946707
H 100.613682 -0.524943 4.429206
H 102.330072 -0.372202 2.491774
C 60.467193 0.073137 0.002316
C 59.214922 0.053956 -0.002033
C 61.780861 0.072371 0.004248
C 63.283995 0.053956 -0.002033
C 74.665132 0.073137 0.002316
C 73.412862 0.053956 -0.002033
C 75.978800 0.072371 0.004248
C 77.481934 0.053956 -0.002033
C 88.863072 0.073137 0.002316
C 87.610801 0.053956 -0.002033
C 90.176740 0.072371 0.004248
C 91.679873 0.053956 -0.002033
C 64.730120 -0.066040 0.000297
C 65.523906 -0.416011 1.326657
C 65.016155 -1.031082 2.453362
C 66.053371 -1.067056 3.420195
C 67.164025 -0.479737 2.851329
N 66.853271 -0.156916 1.554069
C 68.554166 -0.212658 3.562901
C 68.543652 -0.031487 5.032566
C 68.093701 1.162319 5.593132
C 68.055588 1.326406 6.985910
C 68.445521 0.302675 7.868856
N 68.407469 0.446983 9.271193
C 67.932208 1.714159 9.817375
C 67.990763 -0.743492 10.012822
C 68.921174 -0.882117 7.274422
C 68.963857 -1.053130 5.883378
C 69.688785 -0.110911 2.821751
C 70.975395 0.189552 3.414999
C 71.883310 0.232556 2.445915
N 69.896902 -0.231487 1.475531
C 71.221168 -0.039514 1.185788
C 71.884758 -0.066040 0.000297
C 71.090960 -0.365148 -1.338466
C 71.598366 -0.938992 -2.487112
C 70.561454 -0.937824 -3.454935
C 69.451285 -0.370656 -2.864547
N 69.761929 -0.097256 -1.555984
C 68.061518 -0.075718 -3.565789
C 68.072491 0.157992 -5.028004
C 68.531857 1.366341 -5.546966
C 68.569290 1.577916 -6.933661
C 68.169083 0.590743 -7.854405
N 68.206166 0.795604 -9.247654
C 68.384608 -0.391852 -10.081147
C 68.833120 2.014451 -9.750184
C 67.685284 -0.609796 -7.298721
C 67.644147 -0.829489 -5.913967
C 66.926780 -0.001416 -2.821150
C 65.639972 0.321359 -3.402230
C 64.731951 0.326957 -2.432070
C 65.394127 0.006867 -1.183342
N 66.718813 -0.172757 -1.480266
H 64.006837 -1.392824 2.577250
H 65.992184 -1.456749 4.425275
H 67.514668 0.183519 0.861873
H 67.770378 1.967605 4.936913
H 67.691964 2.281827 7.347161
H 68.051386 1.729889 10.907286
H 68.519908 2.557768 9.437529
H 66.870438 1.872629 9.595767
H 68.737836 -1.541028 9.951892
H 67.025241 -1.118751 9.653640
H 67.881411 -0.518316 11.080490
H 69.293606 -1.701335 7.879896
H 69.333797 -1.981932 5.454154
H 71.169500 0.360956 4.459000
H 72.927452 0.439695 2.592176
H 72.607443 -1.297248 -2.623701
H 70.622138 -1.289743 -4.473954
H 69.101384 0.219077 -0.851090
H 68.862105 2.146172 -4.863855
H 68.936959 2.544237 -7.260211
H 69.277880 -0.955228 -9.787743
H 67.506280 -1.044749 -10.040789
H 68.503876 -0.117347 -11.135954
H 69.900178 2.045194 -9.502697
H 68.744462 2.075001 -10.841082
H 68.336070 2.909462 -9.359469
H 67.311974 -1.410845 -7.926838
H 67.270165 -1.771014 -5.517414
H 65.445306 0.532367 -4.438677
H 63.687582 0.539468 -2.569990
C 78.928059 -0.066040 0.000297
C 79.721846 -0.416011 1.326657
C 79.214094 -1.031082 2.453362
C 80.251311 -1.067056 3.420195
C 81.361965 -0.479737 2.851329
N 81.051210 -0.156916 1.554069
C 82.752105 -0.212658 3.562901
C 82.741591 -0.031487 5.032566
C 82.291641 1.162319 5.593132
C 82.253527 1.326406 6.985910
C 82.643460 0.302675 7.868856
N 82.605409 0.446983 9.271193
C 82.130147 1.714159 9.817375
C 82.188702 -0.743492 10.012822
C 83.119113 -0.882117 7.274422
C 83.161796 -1.053130 5.883378
C 83.886724 -0.110911 2.821751
C 85.173334 0.189552 3.414999
C 86.081250 0.232556 2.445915
N 84.094842 -0.231487 1.475531
C 85.419108 -0.039514 1.185788
C 86.082698 -0.066040 0.000297
C 85.288899 -0.365148 -1.338466
C 85.796305 -0.938992 -2.487112
C 84.759393 -0.937824 -3.454935
C 83.649225 -0.370656 -2.864547
N 83.959868 -0.097256 -1.555984
C 82.259458 -0.075718 -3.565789
C 82.270431 0.157992 -5.028004
C 82.729796 1.366341 -5.546966
C 82.767229 1.577916 -6.933661
C 82.367022 0.590743 -7.854405
N 82.404105 0.795604 -9.247654
C 82.582547 -0.391852 -10.081147
C 83.031059 2.014451 -9.750184
C 81.883223 -0.609796 -7.298721
C 81.842087 -0.829489 -5.913967
C 81.124719 -0.001416 -2.821150
C 79.837911 0.321359 -3.402230
C 78.929891 0.326957 -2.432070
C 79.592067 0.006867 -1.183342
N 80.916752 -0.172757 -1.480266
H 78.204777 -1.392824 2.577250
H 80.190123 -1.456749 4.425275
H 81.712608 0.183519 0.861873
H 81.968318 1.967605 4.936913
H 81.889903 2.281827 7.347161
H 82.249325 1.729889 10.907286
H 82.717848 2.557768 9.437529
H 81.068377 1.872629 9.595767
H 82.935775 -1.541028 9.951892
H 81.223180 -1.118751 9.653640
H 82.079351 -0.518316 11.080490
H 83.491545 -1.701335 7.879896
H 83.531736 -1.981932 5.454154
H 85.367439 0.360956 4.459000
H 87.125391 0.439695 2.592176
H 86.805383 -1.297248 -2.623701
H 84.820078 -1.289743 -4.473954
H 83.299323 0.219077 -0.851090
H 83.060045 2.146172 -4.863855
H 83.134899 2.544237 -7.260211
H 83.475819 -0.955228 -9.787743
H 81.704219 -1.044749 -10.040789
H 82.701816 -0.117347 -11.135954
H 84.098118 2.045194 -9.502697
H 82.942401 2.075001 -10.841082
H 82.534009 2.909462 -9.359469
H 81.509914 -1.410845 -7.926838
H 81.468105 -1.771014 -5.517414
H 79.643245 0.532367 -4.438677
H 77.885522 0.539468 -2.569990
