 xtb: 6.5.1 (b24c23e)
          07282211253D

302329  0     0  0            999 V2000
   51.8766   -0.0436    0.0825 C   0  0  0  0  0  0  0  0  0  0  0  0
   52.4854   -0.1764    1.3243 C   0  0  0  0  0  0  0  0  0  0  0  0
   51.8321   -0.2810    2.5836 C   0  0  0  0  0  0  0  0  0  0  0  0
   52.7930   -0.4125    3.5473 C   0  0  0  0  0  0  0  0  0  0  0  0
   54.0639   -0.4039    2.9063 C   0  0  0  0  0  0  0  0  0  0  0  0
   53.8278   -0.2472    1.5696 N   0  0  0  0  0  0  0  0  0  0  0  0
   55.3263   -0.5155    3.5031 C   0  0  0  0  0  0  0  0  0  0  0  0
   55.3551   -0.7231    4.9686 C   0  0  0  0  0  0  0  0  0  0  0  0
   56.0183    0.1716    5.8102 C   0  0  0  0  0  0  0  0  0  0  0  0
   56.0360   -0.0114    7.1809 C   0  0  0  0  0  0  0  0  0  0  0  0
   55.3912   -1.1092    7.7703 C   0  0  0  0  0  0  0  0  0  0  0  0
   55.4509   -1.3321    9.1431 N   0  0  0  0  0  0  0  0  0  0  0  0
   55.8247   -0.2025    9.9942 C   0  0  0  0  0  0  0  0  0  0  0  0
   54.4268   -2.2019    9.7242 C   0  0  0  0  0  0  0  0  0  0  0  0
   54.7410   -2.0173    6.9209 C   0  0  0  0  0  0  0  0  0  0  0  0
   54.7191   -1.8204    5.5523 C   0  0  0  0  0  0  0  0  0  0  0  0
   56.5401   -0.4460    2.8138 C   0  0  0  0  0  0  0  0  0  0  0  0
   57.8380   -0.6349    3.4351 C   0  0  0  0  0  0  0  0  0  0  0  0
   58.7562   -0.4848    2.4573 C   0  0  0  0  0  0  0  0  0  0  0  0
   56.6913   -0.2119    1.4805 N   0  0  0  0  0  0  0  0  0  0  0  0
   58.0175   -0.2175    1.2391 C   0  0  0  0  0  0  0  0  0  0  0  0
   58.6525    0.0058   -0.0003 C   0  0  0  0  0  0  0  0  0  0  0  0
   58.0167    0.2122   -1.2401 C   0  0  0  0  0  0  0  0  0  0  0  0
   58.6620    0.4746   -2.4767 C   0  0  0  0  0  0  0  0  0  0  0  0
   57.6969    0.5995   -3.4382 C   0  0  0  0  0  0  0  0  0  0  0  0
   56.4319    0.4061   -2.8186 C   0  0  0  0  0  0  0  0  0  0  0  0
   56.6770    0.1866   -1.4882 N   0  0  0  0  0  0  0  0  0  0  0  0
   55.1709    0.4494   -3.4261 C   0  0  0  0  0  0  0  0  0  0  0  0
   55.1407    0.6530   -4.8910 C   0  0  0  0  0  0  0  0  0  0  0  0
   54.4508    1.7277   -5.4554 C   0  0  0  0  0  0  0  0  0  0  0  0
   54.4317    1.9297   -6.8234 C   0  0  0  0  0  0  0  0  0  0  0  0
   55.1025    1.0547   -7.6912 C   0  0  0  0  0  0  0  0  0  0  0  0
   55.0440    1.2184   -9.0719 N   0  0  0  0  0  0  0  0  0  0  0  0
   56.0934    0.5775   -9.8664 C   0  0  0  0  0  0  0  0  0  0  0  0
   54.6282    2.5257   -9.5799 C   0  0  0  0  0  0  0  0  0  0  0  0
   55.7792   -0.0356   -7.1233 C   0  0  0  0  0  0  0  0  0  0  0  0
   55.8017   -0.2239   -5.7538 C   0  0  0  0  0  0  0  0  0  0  0  0
   53.9562    0.3153   -2.7427 C   0  0  0  0  0  0  0  0  0  0  0  0
   52.6522    0.2944   -3.3860 C   0  0  0  0  0  0  0  0  0  0  0  0
   51.7408    0.1639   -2.4003 C   0  0  0  0  0  0  0  0  0  0  0  0
   52.4874    0.0891   -1.1576 C   0  0  0  0  0  0  0  0  0  0  0  0
   53.8183    0.1723   -1.4032 N   0  0  0  0  0  0  0  0  0  0  0  0
   50.7911   -0.0484    0.0921 H   0  0  0  0  0  0  0  0  0  0  0  0
   50.7630   -0.2506    2.7225 H   0  0  0  0  0  0  0  0  0  0  0  0
   52.6394   -0.4970    4.6109 H   0  0  0  0  0  0  0  0  0  0  0  0
   54.5551   -0.1861    0.8648 H   0  0  0  0  0  0  0  0  0  0  0  0
   56.5090    1.0405    5.3851 H   0  0  0  0  0  0  0  0  0  0  0  0
   56.5608    0.7161    7.7866 H   0  0  0  0  0  0  0  0  0  0  0  0
   55.1561    0.6530    9.8461 H   0  0  0  0  0  0  0  0  0  0  0  0
   55.7784   -0.5160   11.0366 H   0  0  0  0  0  0  0  0  0  0  0  0
   56.8506    0.0955    9.7757 H   0  0  0  0  0  0  0  0  0  0  0  0
   53.4183   -1.8684    9.4562 H   0  0  0  0  0  0  0  0  0  0  0  0
   54.5747   -3.2252    9.3773 H   0  0  0  0  0  0  0  0  0  0  0  0
   54.5293   -2.1940   10.8087 H   0  0  0  0  0  0  0  0  0  0  0  0
   54.2504   -2.8959    7.3197 H   0  0  0  0  0  0  0  0  0  0  0  0
   54.2192   -2.5469    4.9207 H   0  0  0  0  0  0  0  0  0  0  0  0
   58.0037   -0.8686    4.4743 H   0  0  0  0  0  0  0  0  0  0  0  0
   59.8301   -0.5549    2.5265 H   0  0  0  0  0  0  0  0  0  0  0  0
   59.7290    0.5626   -2.6043 H   0  0  0  0  0  0  0  0  0  0  0  0
   57.8464    0.8202   -4.4825 H   0  0  0  0  0  0  0  0  0  0  0  0
   55.9534    0.0389   -0.7923 H   0  0  0  0  0  0  0  0  0  0  0  0
   53.9418    2.4342   -4.8087 H   0  0  0  0  0  0  0  0  0  0  0  0
   53.8862    2.7826   -7.2060 H   0  0  0  0  0  0  0  0  0  0  0  0
   55.9836    0.8795  -10.9073 H   0  0  0  0  0  0  0  0  0  0  0  0
   57.0915    0.8594   -9.5137 H   0  0  0  0  0  0  0  0  0  0  0  0
   55.9829   -0.5063   -9.8146 H   0  0  0  0  0  0  0  0  0  0  0  0
   53.5946    2.7179   -9.2903 H   0  0  0  0  0  0  0  0  0  0  0  0
   54.6777    2.5128  -10.6682 H   0  0  0  0  0  0  0  0  0  0  0  0
   55.2697    3.3289   -9.2004 H   0  0  0  0  0  0  0  0  0  0  0  0
   56.2906   -0.7569   -7.7478 H   0  0  0  0  0  0  0  0  0  0  0  0
   56.3219   -1.0841   -5.3460 H   0  0  0  0  0  0  0  0  0  0  0  0
   52.4809    0.3542   -4.4488 H   0  0  0  0  0  0  0  0  0  0  0  0
   50.6660    0.1082   -2.4772 H   0  0  0  0  0  0  0  0  0  0  0  0
   98.9256   -0.0267   -0.0928 C   0  0  0  0  0  0  0  0  0  0  0  0
   98.3179    0.1282   -1.3326 C   0  0  0  0  0  0  0  0  0  0  0  0
   98.9725    0.3180   -2.5813 C   0  0  0  0  0  0  0  0  0  0  0  0
   98.0127    0.4089   -3.5508 C   0  0  0  0  0  0  0  0  0  0  0  0
   96.7414    0.2651   -2.9270 C   0  0  0  0  0  0  0  0  0  0  0  0
   96.9760    0.1116   -1.5896 N   0  0  0  0  0  0  0  0  0  0  0  0
   95.4795    0.2859   -3.5353 C   0  0  0  0  0  0  0  0  0  0  0  0
   95.4502    0.4201   -5.0091 C   0  0  0  0  0  0  0  0  0  0  0  0
   94.7728    1.4757   -5.6221 C   0  0  0  0  0  0  0  0  0  0  0  0
   94.7508    1.6118   -6.9982 C   0  0  0  0  0  0  0  0  0  0  0  0
   95.4058    0.6867   -7.8249 C   0  0  0  0  0  0  0  0  0  0  0  0
   95.3401    0.7821   -9.2120 N   0  0  0  0  0  0  0  0  0  0  0  0
   94.9374    2.0675   -9.7823 C   0  0  0  0  0  0  0  0  0  0  0  0
   96.3745    0.0875   -9.9804 C   0  0  0  0  0  0  0  0  0  0  0  0
   96.0724   -0.3825   -7.2074 C   0  0  0  0  0  0  0  0  0  0  0  0
   96.0978   -0.5049   -5.8302 C   0  0  0  0  0  0  0  0  0  0  0  0
   94.2655    0.1889   -2.8493 C   0  0  0  0  0  0  0  0  0  0  0  0
   92.9687    0.1344   -3.4986 C   0  0  0  0  0  0  0  0  0  0  0  0
   92.0497    0.0573   -2.5131 C   0  0  0  0  0  0  0  0  0  0  0  0
   94.1131    0.1184   -1.4976 N   0  0  0  0  0  0  0  0  0  0  0  0
   92.7869    0.0520   -1.2650 C   0  0  0  0  0  0  0  0  0  0  0  0
   92.1505   -0.0024   -0.0076 C   0  0  0  0  0  0  0  0  0  0  0  0
   92.7851   -0.0736    1.2479 C   0  0  0  0  0  0  0  0  0  0  0  0
   92.1387   -0.0937    2.5114 C   0  0  0  0  0  0  0  0  0  0  0  0
   93.1029   -0.1907    3.4771 C   0  0  0  0  0  0  0  0  0  0  0  0
   94.3682   -0.2429    2.8308 C   0  0  0  0  0  0  0  0  0  0  0  0
   94.1244   -0.1566    1.4850 N   0  0  0  0  0  0  0  0  0  0  0  0
   95.6284   -0.3421    3.4333 C   0  0  0  0  0  0  0  0  0  0  0  0
   95.6576   -0.4783    4.9059 C   0  0  0  0  0  0  0  0  0  0  0  0
   96.3479    0.4383    5.7014 C   0  0  0  0  0  0  0  0  0  0  0  0
   96.3699    0.3196    7.0790 C   0  0  0  0  0  0  0  0  0  0  0  0
   95.7028   -0.7333    7.7232 C   0  0  0  0  0  0  0  0  0  0  0  0
   95.7686   -0.8948    9.1037 N   0  0  0  0  0  0  0  0  0  0  0  0
   94.7280   -1.7092    9.7335 C   0  0  0  0  0  0  0  0  0  0  0  0
   96.1856    0.2588    9.9007 C   0  0  0  0  0  0  0  0  0  0  0  0
   95.0231   -1.6626    6.9209 C   0  0  0  0  0  0  0  0  0  0  0  0
   94.9971   -1.5298    5.5449 C   0  0  0  0  0  0  0  0  0  0  0  0
   96.8435   -0.3206    2.7380 C   0  0  0  0  0  0  0  0  0  0  0  0
   98.1468   -0.4898    3.3606 C   0  0  0  0  0  0  0  0  0  0  0  0
   99.0590   -0.3935    2.3718 C   0  0  0  0  0  0  0  0  0  0  0  0
   98.3137   -0.1816    1.1442 C   0  0  0  0  0  0  0  0  0  0  0  0
   96.9826   -0.1550    1.4012 N   0  0  0  0  0  0  0  0  0  0  0  0
  100.0111   -0.0283   -0.1022 H   0  0  0  0  0  0  0  0  0  0  0  0
  100.0416    0.3828   -2.7078 H   0  0  0  0  0  0  0  0  0  0  0  0
   98.1676    0.5722   -4.6050 H   0  0  0  0  0  0  0  0  0  0  0  0
   96.2479    0.0072   -0.8908 H   0  0  0  0  0  0  0  0  0  0  0  0
   94.2740    2.2179   -5.0082 H   0  0  0  0  0  0  0  0  0  0  0  0
   94.2146    2.4523   -7.4197 H   0  0  0  0  0  0  0  0  0  0  0  0
   95.5920    2.8804   -9.4483 H   0  0  0  0  0  0  0  0  0  0  0  0
   94.9785    1.9993  -10.8689 H   0  0  0  0  0  0  0  0  0  0  0  0
   93.9086    2.2877   -9.4957 H   0  0  0  0  0  0  0  0  0  0  0  0
   97.3792    0.3722   -9.6491 H   0  0  0  0  0  0  0  0  0  0  0  0
   96.2493   -0.9906   -9.8737 H   0  0  0  0  0  0  0  0  0  0  0  0
   96.2612    0.3387  -11.0343 H   0  0  0  0  0  0  0  0  0  0  0  0
   96.5728   -1.1392   -7.7980 H   0  0  0  0  0  0  0  0  0  0  0  0
   96.6093   -1.3508   -5.3832 H   0  0  0  0  0  0  0  0  0  0  0  0
   92.8042    0.1361   -4.5640 H   0  0  0  0  0  0  0  0  0  0  0  0
   90.9763   -0.0028   -2.5975 H   0  0  0  0  0  0  0  0  0  0  0  0
   91.0718   -0.0343    2.6546 H   0  0  0  0  0  0  0  0  0  0  0  0
   92.9527   -0.2106    4.5443 H   0  0  0  0  0  0  0  0  0  0  0  0
   94.8486   -0.1468    0.7742 H   0  0  0  0  0  0  0  0  0  0  0  0
   96.8555    1.2750    5.2337 H   0  0  0  0  0  0  0  0  0  0  0  0
   96.9155    1.0623    7.6468 H   0  0  0  0  0  0  0  0  0  0  0  0
   94.8451   -1.6583   10.8153 H   0  0  0  0  0  0  0  0  0  0  0  0
   93.7260   -1.3580    9.4636 H   0  0  0  0  0  0  0  0  0  0  0  0
   94.8419   -2.7502    9.4289 H   0  0  0  0  0  0  0  0  0  0  0  0
   97.2157    0.5188    9.6555 H   0  0  0  0  0  0  0  0  0  0  0  0
   96.1466   -0.0095   10.9559 H   0  0  0  0  0  0  0  0  0  0  0  0
   95.5382    1.1254    9.7260 H   0  0  0  0  0  0  0  0  0  0  0  0
   94.5125   -2.5083    7.3634 H   0  0  0  0  0  0  0  0  0  0  0  0
   94.4749   -2.2725    4.9511 H   0  0  0  0  0  0  0  0  0  0  0  0
   98.3168   -0.6740    4.4093 H   0  0  0  0  0  0  0  0  0  0  0  0
  100.1336   -0.4670    2.4348 H   0  0  0  0  0  0  0  0  0  0  0  0
   61.2799    0.0474   -0.0267 C   0  0  0  0  0  0  0  0  0  0  0  0
   60.0574    0.0268   -0.0141 C   0  0  0  0  0  0  0  0  0  0  0  0
   62.6282    0.0711   -0.0321 C   0  0  0  0  0  0  0  0  0  0  0  0
   63.8508    0.0954   -0.0376 C   0  0  0  0  0  0  0  0  0  0  0  0
   74.7280    0.1988   -0.0081 C   0  0  0  0  0  0  0  0  0  0  0  0
   73.5049    0.2042   -0.0072 C   0  0  0  0  0  0  0  0  0  0  0  0
   76.0760    0.1973   -0.0020 C   0  0  0  0  0  0  0  0  0  0  0  0
   77.2992    0.2002   -0.0023 C   0  0  0  0  0  0  0  0  0  0  0  0
   88.1750    0.0631    0.0367 C   0  0  0  0  0  0  0  0  0  0  0  0
   86.9526    0.0899    0.0453 C   0  0  0  0  0  0  0  0  0  0  0  0
   89.5233    0.0377    0.0274 C   0  0  0  0  0  0  0  0  0  0  0  0
   90.7456    0.0154    0.0093 C   0  0  0  0  0  0  0  0  0  0  0  0
   65.2547    0.1236   -0.0336 C   0  0  0  0  0  0  0  0  0  0  0  0
   65.8763    0.0510    1.2289 C   0  0  0  0  0  0  0  0  0  0  0  0
   65.2219   -0.0812    2.4799 C   0  0  0  0  0  0  0  0  0  0  0  0
   66.1800   -0.0826    3.4577 C   0  0  0  0  0  0  0  0  0  0  0  0
   67.4470    0.0580    2.8306 C   0  0  0  0  0  0  0  0  0  0  0  0
   67.2134    0.1214    1.4826 N   0  0  0  0  0  0  0  0  0  0  0  0
   68.7013    0.1086    3.4545 C   0  0  0  0  0  0  0  0  0  0  0  0
   68.7021    0.0850    4.9349 C   0  0  0  0  0  0  0  0  0  0  0  0
   68.0310    1.0648    5.6691 C   0  0  0  0  0  0  0  0  0  0  0  0
   68.0241    1.0458    7.0518 C   0  0  0  0  0  0  0  0  0  0  0  0
   68.6786    0.0283    7.7626 C   0  0  0  0  0  0  0  0  0  0  0  0
   68.7081    0.0319    9.1540 N   0  0  0  0  0  0  0  0  0  0  0  0
   67.6670    0.7949    9.8442 C   0  0  0  0  0  0  0  0  0  0  0  0
   69.0736   -1.2167    9.8233 C   0  0  0  0  0  0  0  0  0  0  0  0
   69.3591   -0.9506    7.0228 C   0  0  0  0  0  0  0  0  0  0  0  0
   69.3709   -0.9169    5.6403 C   0  0  0  0  0  0  0  0  0  0  0  0
   69.9276    0.1776    2.7900 C   0  0  0  0  0  0  0  0  0  0  0  0
   71.2084    0.2938    3.4625 C   0  0  0  0  0  0  0  0  0  0  0  0
   72.1491    0.3118    2.4948 C   0  0  0  0  0  0  0  0  0  0  0  0
   70.1099    0.1552    1.4401 N   0  0  0  0  0  0  0  0  0  0  0  0
   71.4405    0.2218    1.2342 C   0  0  0  0  0  0  0  0  0  0  0  0
   72.1011    0.2021   -0.0115 C   0  0  0  0  0  0  0  0  0  0  0  0
   71.4805    0.1847   -1.2766 C   0  0  0  0  0  0  0  0  0  0  0  0
   72.1372    0.1321   -2.5322 C   0  0  0  0  0  0  0  0  0  0  0  0
   71.1789    0.1552   -3.5095 C   0  0  0  0  0  0  0  0  0  0  0  0
   69.9091    0.2329   -2.8773 C   0  0  0  0  0  0  0  0  0  0  0  0
   70.1419    0.2357   -1.5274 N   0  0  0  0  0  0  0  0  0  0  0  0
   68.6533    0.2825   -3.4981 C   0  0  0  0  0  0  0  0  0  0  0  0
   68.6487    0.3255   -4.9779 C   0  0  0  0  0  0  0  0  0  0  0  0
   69.2982    1.3490   -5.6705 C   0  0  0  0  0  0  0  0  0  0  0  0
   69.2982    1.3918   -7.0527 C   0  0  0  0  0  0  0  0  0  0  0  0
   68.6578    0.3959   -7.8054 C   0  0  0  0  0  0  0  0  0  0  0  0
   68.6195    0.4604   -9.1953 N   0  0  0  0  0  0  0  0  0  0  0  0
   68.2806   -0.7672   -9.9160 C   0  0  0  0  0  0  0  0  0  0  0  0
   69.6389    1.2763   -9.8566 C   0  0  0  0  0  0  0  0  0  0  0  0
   67.9986   -0.6272   -7.1072 C   0  0  0  0  0  0  0  0  0  0  0  0
   67.9940   -0.6559   -5.7246 C   0  0  0  0  0  0  0  0  0  0  0  0
   67.4262    0.2922   -2.8308 C   0  0  0  0  0  0  0  0  0  0  0  0
   66.1427    0.4158   -3.4971 C   0  0  0  0  0  0  0  0  0  0  0  0
   65.2025    0.3652   -2.5300 C   0  0  0  0  0  0  0  0  0  0  0  0
   65.9136    0.2260   -1.2756 C   0  0  0  0  0  0  0  0  0  0  0  0
   67.2455    0.1985   -1.4842 N   0  0  0  0  0  0  0  0  0  0  0  0
   64.1550   -0.1690    2.6076 H   0  0  0  0  0  0  0  0  0  0  0  0
   66.0234   -0.1848    4.5191 H   0  0  0  0  0  0  0  0  0  0  0  0
   67.9385    0.2020    0.7776 H   0  0  0  0  0  0  0  0  0  0  0  0
   67.5250    1.8703    5.1478 H   0  0  0  0  0  0  0  0  0  0  0  0
   67.5058    1.8411    7.5718 H   0  0  0  0  0  0  0  0  0  0  0  0
   67.7572    0.6263   10.9167 H   0  0  0  0  0  0  0  0  0  0  0  0
   67.8071    1.8598    9.6558 H   0  0  0  0  0  0  0  0  0  0  0  0
   66.6655    0.4952    9.5164 H   0  0  0  0  0  0  0  0  0  0  0  0
   70.1096   -1.4659    9.5919 H   0  0  0  0  0  0  0  0  0  0  0  0
   68.4220   -2.0431    9.5181 H   0  0  0  0  0  0  0  0  0  0  0  0
   68.9920   -1.0765   10.9007 H   0  0  0  0  0  0  0  0  0  0  0  0
   69.8893   -1.7534    7.5187 H   0  0  0  0  0  0  0  0  0  0  0  0
   69.8889   -1.6987    5.0953 H   0  0  0  0  0  0  0  0  0  0  0  0
   71.3481    0.3682    4.5288 H   0  0  0  0  0  0  0  0  0  0  0  0
   73.2197    0.3897    2.5978 H   0  0  0  0  0  0  0  0  0  0  0  0
   73.2059    0.0771   -2.6634 H   0  0  0  0  0  0  0  0  0  0  0  0
   71.3377    0.1095   -4.5746 H   0  0  0  0  0  0  0  0  0  0  0  0
   69.4155    0.2615   -0.8197 H   0  0  0  0  0  0  0  0  0  0  0  0
   69.7921    2.1398   -5.1161 H   0  0  0  0  0  0  0  0  0  0  0  0
   69.8000    2.2187   -7.5387 H   0  0  0  0  0  0  0  0  0  0  0  0
   68.9474   -1.5922   -9.6414 H   0  0  0  0  0  0  0  0  0  0  0  0
   67.2489   -1.0458   -9.6989 H   0  0  0  0  0  0  0  0  0  0  0  0
   68.3631   -0.5824  -10.9865 H   0  0  0  0  0  0  0  0  0  0  0  0
   70.6493    0.9795   -9.5544 H   0  0  0  0  0  0  0  0  0  0  0  0
   69.5397    1.1601  -10.9352 H   0  0  0  0  0  0  0  0  0  0  0  0
   69.4811    2.3276   -9.6134 H   0  0  0  0  0  0  0  0  0  0  0  0
   67.4788   -1.4154   -7.6363 H   0  0  0  0  0  0  0  0  0  0  0  0
   67.4929   -1.4704   -5.2129 H   0  0  0  0  0  0  0  0  0  0  0  0
   66.0004    0.5418   -4.5582 H   0  0  0  0  0  0  0  0  0  0  0  0
   64.1303    0.4258   -2.6293 H   0  0  0  0  0  0  0  0  0  0  0  0
   78.7030    0.1942    0.0050 C   0  0  0  0  0  0  0  0  0  0  0  0
   79.3203    0.1257    1.2700 C   0  0  0  0  0  0  0  0  0  0  0  0
   78.6600    0.0259    2.5210 C   0  0  0  0  0  0  0  0  0  0  0  0
   79.6158    0.0061    3.5008 C   0  0  0  0  0  0  0  0  0  0  0  0
   80.8876    0.1034    2.8753 C   0  0  0  0  0  0  0  0  0  0  0  0
   80.6583    0.1612    1.5260 N   0  0  0  0  0  0  0  0  0  0  0  0
   82.1418    0.1210    3.5007 C   0  0  0  0  0  0  0  0  0  0  0  0
   82.1434    0.1046    4.9812 C   0  0  0  0  0  0  0  0  0  0  0  0
   81.5032    1.1073    5.7120 C   0  0  0  0  0  0  0  0  0  0  0  0
   81.5055    1.0992    7.0948 C   0  0  0  0  0  0  0  0  0  0  0  0
   82.1387    0.0710    7.8094 C   0  0  0  0  0  0  0  0  0  0  0  0
   82.1826    0.0864    9.2004 N   0  0  0  0  0  0  0  0  0  0  0  0
   81.1737    0.8883    9.8941 C   0  0  0  0  0  0  0  0  0  0  0  0
   82.5139   -1.1680    9.8771 C   0  0  0  0  0  0  0  0  0  0  0  0
   82.7856   -0.9328    7.0728 C   0  0  0  0  0  0  0  0  0  0  0  0
   82.7883   -0.9105    5.6901 C   0  0  0  0  0  0  0  0  0  0  0  0
   83.3707    0.1537    2.8376 C   0  0  0  0  0  0  0  0  0  0  0  0
   84.6531    0.2401    3.5119 C   0  0  0  0  0  0  0  0  0  0  0  0
   85.5954    0.2326    2.5456 C   0  0  0  0  0  0  0  0  0  0  0  0
   83.5544    0.1222    1.4884 N   0  0  0  0  0  0  0  0  0  0  0  0
   84.8868    0.1560    1.2843 C   0  0  0  0  0  0  0  0  0  0  0  0
   85.5486    0.1169    0.0402 C   0  0  0  0  0  0  0  0  0  0  0  0
   84.9305    0.1062   -1.2260 C   0  0  0  0  0  0  0  0  0  0  0  0
   85.5889    0.0328   -2.4798 C   0  0  0  0  0  0  0  0  0  0  0  0
   84.6333    0.0682   -3.4595 C   0  0  0  0  0  0  0  0  0  0  0  0
   83.3640    0.1744   -2.8305 C   0  0  0  0  0  0  0  0  0  0  0  0
   83.5938    0.1818   -1.4803 N   0  0  0  0  0  0  0  0  0  0  0  0
   82.1107    0.2423   -3.4547 C   0  0  0  0  0  0  0  0  0  0  0  0
   82.1113    0.2771   -4.9349 C   0  0  0  0  0  0  0  0  0  0  0  0
   82.7775    1.2886   -5.6295 C   0  0  0  0  0  0  0  0  0  0  0  0
   82.7809    1.3268   -7.0118 C   0  0  0  0  0  0  0  0  0  0  0  0
   82.1271    0.3380   -7.7626 C   0  0  0  0  0  0  0  0  0  0  0  0
   82.0902    0.4013   -9.1524 N   0  0  0  0  0  0  0  0  0  0  0  0
   81.7252   -0.8187   -9.8729 C   0  0  0  0  0  0  0  0  0  0  0  0
   83.1241    1.1973   -9.8153 C   0  0  0  0  0  0  0  0  0  0  0  0
   81.4539   -0.6744   -7.0623 C   0  0  0  0  0  0  0  0  0  0  0  0
   81.4458   -0.6982   -5.6796 C   0  0  0  0  0  0  0  0  0  0  0  0
   80.8827    0.2794   -2.7905 C   0  0  0  0  0  0  0  0  0  0  0  0
   79.6030    0.4184   -3.4609 C   0  0  0  0  0  0  0  0  0  0  0  0
   78.6603    0.3982   -2.4952 C   0  0  0  0  0  0  0  0  0  0  0  0
   79.3665    0.2613   -1.2375 C   0  0  0  0  0  0  0  0  0  0  0  0
   80.6976    0.2046   -1.4429 N   0  0  0  0  0  0  0  0  0  0  0  0
   77.5907   -0.0297    2.6471 H   0  0  0  0  0  0  0  0  0  0  0  0
   79.4542   -0.0811    4.5629 H   0  0  0  0  0  0  0  0  0  0  0  0
   81.3869    0.2133    0.8220 H   0  0  0  0  0  0  0  0  0  0  0  0
   81.0157    1.9223    5.1878 H   0  0  0  0  0  0  0  0  0  0  0  0
   81.0121    1.9122    7.6117 H   0  0  0  0  0  0  0  0  0  0  0  0
   81.2743    0.7318   10.9675 H   0  0  0  0  0  0  0  0  0  0  0  0
   81.3419    1.9461    9.6890 H   0  0  0  0  0  0  0  0  0  0  0  0
   80.1594    0.6134    9.5843 H   0  0  0  0  0  0  0  0  0  0  0  0
   83.5411   -1.4495    9.6432 H   0  0  0  0  0  0  0  0  0  0  0  0
   81.8368   -1.9767    9.5801 H   0  0  0  0  0  0  0  0  0  0  0  0
   82.4409   -1.0183   10.9537 H   0  0  0  0  0  0  0  0  0  0  0  0
   83.2979   -1.7454    7.5717 H   0  0  0  0  0  0  0  0  0  0  0  0
   83.2810   -1.7103    5.1479 H   0  0  0  0  0  0  0  0  0  0  0  0
   84.7933    0.3143    4.5781 H   0  0  0  0  0  0  0  0  0  0  0  0
   86.6675    0.2848    2.6500 H   0  0  0  0  0  0  0  0  0  0  0  0
   86.6566   -0.0437   -2.6082 H   0  0  0  0  0  0  0  0  0  0  0  0
   84.7933    0.0124   -4.5238 H   0  0  0  0  0  0  0  0  0  0  0  0
   82.8662    0.2268   -0.7747 H   0  0  0  0  0  0  0  0  0  0  0  0
   83.2817    2.0739   -5.0766 H   0  0  0  0  0  0  0  0  0  0  0  0
   83.2954    2.1448   -7.4995 H   0  0  0  0  0  0  0  0  0  0  0  0
   82.3800   -1.6556   -9.6056 H   0  0  0  0  0  0  0  0  0  0  0  0
   80.6907   -1.0802   -9.6484 H   0  0  0  0  0  0  0  0  0  0  0  0
   81.8024   -0.6326  -10.9436 H   0  0  0  0  0  0  0  0  0  0  0  0
   84.1289    0.8836   -9.5115 H   0  0  0  0  0  0  0  0  0  0  0  0
   83.0238    1.0797  -10.8937 H   0  0  0  0  0  0  0  0  0  0  0  0
   82.9849    2.2519   -9.5754 H   0  0  0  0  0  0  0  0  0  0  0  0
   80.9257   -1.4582   -7.5898 H   0  0  0  0  0  0  0  0  0  0  0  0
   80.9328   -1.5043   -5.1662 H   0  0  0  0  0  0  0  0  0  0  0  0
   79.4652    0.5331   -4.5239 H   0  0  0  0  0  0  0  0  0  0  0  0
   77.5898    0.4783   -2.5975 H   0  0  0  0  0  0  0  0  0  0  0  0
  1  2  4  0  0  0  0
  2  3  4  0  0  0  0
  3  4  2  0  0  0  0
  4  5  4  0  0  0  0
  2  6  4  0  0  0  0
  5  6  4  0  0  0  0
  5  7  4  0  0  0  0
  7  8  1  0  0  0  0
  8  9  4  0  0  0  0
  9 10  4  0  0  0  0
 10 11  4  0  0  0  0
 11 12  1  0  0  0  0
 12 13  1  0  0  0  0
 12 14  1  0  0  0  0
 11 15  4  0  0  0  0
  8 16  4  0  0  0  0
 15 16  4  0  0  0  0
  7 17  4  0  0  0  0
 17 18  1  0  0  0  0
 18 19  2  0  0  0  0
 17 20  4  0  0  0  0
 19 21  1  0  0  0  0
 20 21  4  0  0  0  0
 21 22  4  0  0  0  0
 22 23  4  0  0  0  0
 23 24  4  0  0  0  0
 24 25  2  0  0  0  0
 25 26  4  0  0  0  0
 23 27  4  0  0  0  0
 26 27  4  0  0  0  0
 26 28  4  0  0  0  0
 28 29  1  0  0  0  0
 29 30  4  0  0  0  0
 30 31  4  0  0  0  0
 31 32  4  0  0  0  0
 32 33  1  0  0  0  0
 33 34  1  0  0  0  0
 33 35  1  0  0  0  0
 32 36  4  0  0  0  0
 29 37  4  0  0  0  0
 36 37  4  0  0  0  0
 28 38  4  0  0  0  0
 38 39  1  0  0  0  0
 39 40  2  0  0  0  0
  1 41  4  0  0  0  0
 40 41  1  0  0  0  0
 38 42  4  0  0  0  0
 41 42  4  0  0  0  0
  1 43  1  0  0  0  0
  3 44  1  0  0  0  0
  4 45  1  0  0  0  0
  6 46  1  0  0  0  0
  9 47  1  0  0  0  0
 10 48  1  0  0  0  0
 13 49  1  0  0  0  0
 13 50  1  0  0  0  0
 13 51  1  0  0  0  0
 14 52  1  0  0  0  0
 14 53  1  0  0  0  0
 14 54  1  0  0  0  0
 15 55  1  0  0  0  0
 16 56  1  0  0  0  0
 18 57  1  0  0  0  0
 19 58  1  0  0  0  0
 24 59  1  0  0  0  0
 25 60  1  0  0  0  0
 27 61  1  0  0  0  0
 30 62  1  0  0  0  0
 31 63  1  0  0  0  0
 34 64  1  0  0  0  0
 34 65  1  0  0  0  0
 34 66  1  0  0  0  0
 35 67  1  0  0  0  0
 35 68  1  0  0  0  0
 35 69  1  0  0  0  0
 36 70  1  0  0  0  0
 37 71  1  0  0  0  0
 39 72  1  0  0  0  0
 40 73  1  0  0  0  0
 74 75  4  0  0  0  0
 75 76  4  0  0  0  0
 76 77  2  0  0  0  0
 77 78  4  0  0  0  0
 75 79  4  0  0  0  0
 78 79  4  0  0  0  0
 78 80  4  0  0  0  0
 80 81  1  0  0  0  0
 81 82  4  0  0  0  0
 82 83  4  0  0  0  0
 83 84  4  0  0  0  0
 84 85  1  0  0  0  0
 85 86  1  0  0  0  0
 85 87  1  0  0  0  0
 84 88  4  0  0  0  0
 81 89  4  0  0  0  0
 88 89  4  0  0  0  0
 80 90  4  0  0  0  0
 90 91  1  0  0  0  0
 91 92  2  0  0  0  0
 90 93  4  0  0  0  0
 92 94  1  0  0  0  0
 93 94  4  0  0  0  0
 94 95  4  0  0  0  0
 95 96  4  0  0  0  0
 96 97  4  0  0  0  0
 97 98  2  0  0  0  0
 98 99  4  0  0  0  0
 96100  4  0  0  0  0
 99100  4  0  0  0  0
 99101  4  0  0  0  0
101102  1  0  0  0  0
102103  4  0  0  0  0
103104  4  0  0  0  0
104105  4  0  0  0  0
105106  1  0  0  0  0
106107  1  0  0  0  0
106108  1  0  0  0  0
105109  4  0  0  0  0
102110  4  0  0  0  0
109110  4  0  0  0  0
101111  4  0  0  0  0
111112  1  0  0  0  0
112113  2  0  0  0  0
 74114  4  0  0  0  0
113114  1  0  0  0  0
111115  4  0  0  0  0
114115  4  0  0  0  0
 74116  1  0  0  0  0
 76117  1  0  0  0  0
 77118  1  0  0  0  0
 79119  1  0  0  0  0
 82120  1  0  0  0  0
 83121  1  0  0  0  0
 86122  1  0  0  0  0
 86123  1  0  0  0  0
 86124  1  0  0  0  0
 87125  1  0  0  0  0
 87126  1  0  0  0  0
 87127  1  0  0  0  0
 88128  1  0  0  0  0
 89129  1  0  0  0  0
 91130  1  0  0  0  0
 92131  1  0  0  0  0
 97132  1  0  0  0  0
 98133  1  0  0  0  0
100134  1  0  0  0  0
103135  1  0  0  0  0
104136  1  0  0  0  0
107137  1  0  0  0  0
107138  1  0  0  0  0
107139  1  0  0  0  0
108140  1  0  0  0  0
108141  1  0  0  0  0
108142  1  0  0  0  0
109143  1  0  0  0  0
110144  1  0  0  0  0
112145  1  0  0  0  0
113146  1  0  0  0  0
 22148  4  0  0  0  0
147148  3  0  0  0  0
147149  4  0  0  0  0
149150  3  0  0  0  0
151152  3  0  0  0  0
151153  4  0  0  0  0
153154  3  0  0  0  0
155156  3  0  0  0  0
155157  4  0  0  0  0
 95158  4  0  0  0  0
157158  3  0  0  0  0
150159  4  0  0  0  0
159160  4  0  0  0  0
160161  4  0  0  0  0
161162  2  0  0  0  0
162163  4  0  0  0  0
160164  4  0  0  0  0
163164  4  0  0  0  0
163165  4  0  0  0  0
165166  1  0  0  0  0
166167  4  0  0  0  0
167168  4  0  0  0  0
168169  4  0  0  0  0
169170  1  0  0  0  0
170171  1  0  0  0  0
170172  1  0  0  0  0
169173  4  0  0  0  0
166174  4  0  0  0  0
173174  4  0  0  0  0
165175  4  0  0  0  0
175176  1  0  0  0  0
176177  2  0  0  0  0
175178  4  0  0  0  0
177179  1  0  0  0  0
178179  4  0  0  0  0
152180  4  0  0  0  0
179180  4  0  0  0  0
180181  4  0  0  0  0
181182  4  0  0  0  0
182183  2  0  0  0  0
183184  4  0  0  0  0
181185  4  0  0  0  0
184185  4  0  0  0  0
184186  4  0  0  0  0
186187  1  0  0  0  0
187188  4  0  0  0  0
188189  4  0  0  0  0
189190  4  0  0  0  0
190191  1  0  0  0  0
191192  1  0  0  0  0
191193  1  0  0  0  0
190194  4  0  0  0  0
187195  4  0  0  0  0
194195  4  0  0  0  0
186196  4  0  0  0  0
196197  1  0  0  0  0
197198  2  0  0  0  0
159199  4  0  0  0  0
198199  1  0  0  0  0
196200  4  0  0  0  0
199200  4  0  0  0  0
161201  1  0  0  0  0
162202  1  0  0  0  0
164203  1  0  0  0  0
167204  1  0  0  0  0
168205  1  0  0  0  0
171206  1  0  0  0  0
171207  1  0  0  0  0
171208  1  0  0  0  0
172209  1  0  0  0  0
172210  1  0  0  0  0
172211  1  0  0  0  0
173212  1  0  0  0  0
174213  1  0  0  0  0
176214  1  0  0  0  0
177215  1  0  0  0  0
182216  1  0  0  0  0
183217  1  0  0  0  0
185218  1  0  0  0  0
188219  1  0  0  0  0
189220  1  0  0  0  0
192221  1  0  0  0  0
192222  1  0  0  0  0
192223  1  0  0  0  0
193224  1  0  0  0  0
193225  1  0  0  0  0
193226  1  0  0  0  0
194227  1  0  0  0  0
195228  1  0  0  0  0
197229  1  0  0  0  0
198230  1  0  0  0  0
154231  4  0  0  0  0
231232  4  0  0  0  0
232233  4  0  0  0  0
233234  2  0  0  0  0
234235  4  0  0  0  0
232236  4  0  0  0  0
235236  4  0  0  0  0
235237  4  0  0  0  0
237238  1  0  0  0  0
238239  4  0  0  0  0
239240  4  0  0  0  0
240241  4  0  0  0  0
241242  1  0  0  0  0
242243  1  0  0  0  0
242244  1  0  0  0  0
241245  4  0  0  0  0
238246  4  0  0  0  0
245246  4  0  0  0  0
237247  4  0  0  0  0
247248  1  0  0  0  0
248249  2  0  0  0  0
247250  4  0  0  0  0
249251  1  0  0  0  0
250251  4  0  0  0  0
156252  4  0  0  0  0
251252  4  0  0  0  0
252253  4  0  0  0  0
253254  4  0  0  0  0
254255  2  0  0  0  0
255256  4  0  0  0  0
253257  4  0  0  0  0
256257  4  0  0  0  0
256258  4  0  0  0  0
258259  1  0  0  0  0
259260  4  0  0  0  0
260261  4  0  0  0  0
261262  4  0  0  0  0
262263  1  0  0  0  0
263264  1  0  0  0  0
263265  1  0  0  0  0
262266  4  0  0  0  0
259267  4  0  0  0  0
266267  4  0  0  0  0
258268  4  0  0  0  0
268269  1  0  0  0  0
269270  2  0  0  0  0
231271  4  0  0  0  0
270271  1  0  0  0  0
268272  4  0  0  0  0
271272  4  0  0  0  0
233273  1  0  0  0  0
234274  1  0  0  0  0
236275  1  0  0  0  0
239276  1  0  0  0  0
240277  1  0  0  0  0
243278  1  0  0  0  0
243279  1  0  0  0  0
243280  1  0  0  0  0
244281  1  0  0  0  0
244282  1  0  0  0  0
244283  1  0  0  0  0
245284  1  0  0  0  0
246285  1  0  0  0  0
248286  1  0  0  0  0
249287  1  0  0  0  0
254288  1  0  0  0  0
255289  1  0  0  0  0
257290  1  0  0  0  0
260291  1  0  0  0  0
261292  1  0  0  0  0
264293  1  0  0  0  0
264294  1  0  0  0  0
264295  1  0  0  0  0
265296  1  0  0  0  0
265297  1  0  0  0  0
265298  1  0  0  0  0
266299  1  0  0  0  0
267300  1  0  0  0  0
269301  1  0  0  0  0
270302  1  0  0  0  0
M  END
