122

C 7.850829 -0.011072 -0.051124
C 8.579322 -1.269250 0.513481
C 7.970713 -2.433769 0.923194
C 8.992501 -3.285032 1.418042
C 10.190570 -2.607637 1.300190
N 9.931963 -1.400508 0.700501
C 11.613059 -3.109751 1.789721
C 12.742891 -2.434524 1.444879
C 14.047529 -2.830763 1.934070
C 14.949895 -1.980504 1.458768
N 12.939167 -1.328260 0.660411
C 14.270720 -1.003469 0.630420
C 14.938364 -0.000963 -0.000674
C 14.160714 1.031911 -0.921369
C 14.701105 1.767298 -1.958334
C 13.676313 2.600932 -2.471184
C 12.536068 2.343576 -1.740509
C 11.126768 3.049292 -1.923922
C 11.099523 4.387608 -2.556799
C 10.726846 4.532786 -3.899097
C 10.715902 5.794796 -4.496034
C 11.080660 6.919236 -3.754502
C 11.456044 6.782552 -2.417303
C 11.466325 5.520120 -1.820829
C 10.001141 2.427999 -1.484702
C 8.679261 3.016753 -1.607781
C 7.793445 2.164635 -1.100357
C 8.515069 1.009864 -0.624353
N 9.836161 1.217677 -0.870404
N 12.826732 1.349608 -0.835877
C 11.650525 -4.301582 2.670571
C 11.398168 -4.173113 4.041508
C 11.422733 -5.296027 4.870744
C 11.698789 -6.554016 4.333082
C 11.950551 -6.690333 2.967174
C 11.925567 -5.567276 2.138220
H 6.772995 0.037295 0.047003
H 6.912349 -2.640518 0.886126
H 8.865314 -4.271807 1.837194
H 10.633177 -0.711116 0.440723
H 14.258605 -3.662222 2.582673
H 16.003429 -2.030812 1.664129
H 15.723020 1.721367 -2.302565
H 13.760825 3.312640 -3.278582
H 10.442613 3.648939 -4.466281
H 10.421617 5.892910 -5.535930
H 11.071868 7.900799 -4.217458
H 11.741076 7.652159 -1.833868
H 11.757351 5.402816 -0.779186
H 8.451413 3.977332 -2.033507
H 6.729942 2.308959 -1.042561
H 12.143436 0.888207 -0.240930
H 11.185848 -3.187330 4.449717
H 11.227486 -5.181737 5.932149
H 11.719448 -7.426583 4.978157
H 12.168352 -7.664852 2.542217
H 12.123514 -5.660146 1.072547
C 33.620900 -0.042269 -0.031352
C 32.892407 1.005414 -0.928096
C 33.501016 1.873047 -1.806266
C 32.479228 2.683938 -2.364815
C 31.281159 2.288187 -1.802557
N 31.539766 1.230570 -0.966954
C 29.858670 2.945221 -2.047639
C 28.728838 2.345129 -1.584243
C 27.424200 2.956657 -1.733729
C 26.521834 2.163869 -1.167744
N 28.532562 1.163474 -0.918734
C 27.201009 0.997701 -0.637829
C 26.533365 -0.000963 -0.000674
C 27.311015 -1.274478 0.540314
C 26.770624 -2.526141 0.762649
C 27.795416 -3.345786 1.297570
C 28.935661 -2.575172 1.376766
C 30.344961 -3.042300 1.936647
C 30.372206 -4.185932 2.876714
C 30.744883 -5.461750 2.434977
C 30.755827 -6.540308 3.321383
C 30.391069 -6.349759 4.654772
C 30.015686 -5.082179 5.102014
C 30.005404 -4.003859 4.215028
C 31.470588 -2.379885 1.562312
C 32.792468 -2.742523 2.042181
C 33.678284 -1.919893 1.488228
C 32.956660 -0.996475 0.647172
N 31.635568 -1.307694 0.730059
N 28.644997 -1.332791 0.864104
C 29.821204 4.250563 -2.749382
C 30.073561 5.435459 -2.047960
C 30.048996 6.664706 -2.709414
C 29.772940 6.715528 -4.076540
C 29.521178 5.538530 -4.782912
C 29.546162 4.309478 -4.121209
H 34.698735 0.025818 0.054276
H 34.559380 1.927786 -2.009054
H 32.606415 3.484229 -3.078222
H 30.838552 0.701354 -0.454435
H 27.213124 3.898136 -2.208732
H 25.468300 2.371054 -1.125569
H 25.748709 -2.817821 0.574163
H 27.710904 -4.379742 1.596494
H 31.029116 -5.597344 1.393585
H 31.050112 -7.522571 2.966180
H 30.399861 -7.187436 5.344766
H 29.730653 -4.925811 6.137466
H 29.714378 -3.011825 4.553624
H 33.020316 -3.537575 2.729093
H 34.741787 -1.929239 1.643413
H 29.328294 -0.597811 0.700839
H 30.285881 5.383775 -0.982253
H 30.244243 7.575745 -2.152952
H 29.752281 7.671365 -4.590222
H 29.303378 5.570259 -5.845583
H 29.348216 3.385434 -4.660123
C 16.239423 0.013727 0.009602
C 17.697650 -0.008110 -0.008271
C 18.831578 -0.028863 -0.009762
C 20.192960 -0.041453 -0.011953
C 21.467178 -0.031147 -0.016718
C 22.655641 -0.012349 -0.022874
C 24.008002 0.012436 -0.007006
C 25.108269 0.013727 0.009602
