 xtb: 6.5.1 (b24c23e)
          07292222543D

122135  0     0  0            999 V2000
    8.0764   -0.0787    0.0489 C   0  0  0  0  0  0  0  0  0  0  0  0
    8.6868   -1.1601    0.6711 C   0  0  0  0  0  0  0  0  0  0  0  0
    8.0366   -2.2673    1.2850 C   0  0  0  0  0  0  0  0  0  0  0  0
    9.0000   -3.0943    1.7904 C   0  0  0  0  0  0  0  0  0  0  0  0
   10.2699   -2.5144    1.5093 C   0  0  0  0  0  0  0  0  0  0  0  0
   10.0302   -1.3571    0.8242 N   0  0  0  0  0  0  0  0  0  0  0  0
   11.5334   -3.0163    1.8415 C   0  0  0  0  0  0  0  0  0  0  0  0
   12.7481   -2.4214    1.4933 C   0  0  0  0  0  0  0  0  0  0  0  0
   14.0457   -2.9321    1.8973 C   0  0  0  0  0  0  0  0  0  0  0  0
   14.9663   -2.1034    1.3625 C   0  0  0  0  0  0  0  0  0  0  0  0
   12.9024   -1.2912    0.7490 N   0  0  0  0  0  0  0  0  0  0  0  0
   14.2297   -1.0814    0.6444 C   0  0  0  0  0  0  0  0  0  0  0  0
   14.8669   -0.0354   -0.0550 C   0  0  0  0  0  0  0  0  0  0  0  0
   14.2296    1.0257   -0.7263 C   0  0  0  0  0  0  0  0  0  0  0  0
   14.8711    2.0711   -1.4417 C   0  0  0  0  0  0  0  0  0  0  0  0
   13.9033    2.9088   -1.9229 C   0  0  0  0  0  0  0  0  0  0  0  0
   12.6397    2.4027   -1.5097 C   0  0  0  0  0  0  0  0  0  0  0  0
   11.3782    2.9395   -1.7869 C   0  0  0  0  0  0  0  0  0  0  0  0
   11.3465    4.2127   -2.5476 C   0  0  0  0  0  0  0  0  0  0  0  0
   10.7223    4.2771   -3.7942 C   0  0  0  0  0  0  0  0  0  0  0  0
   10.6957    5.4678   -4.5044 C   0  0  0  0  0  0  0  0  0  0  0  0
   11.2865    6.6085   -3.9779 C   0  0  0  0  0  0  0  0  0  0  0  0
   11.9074    6.5533   -2.7375 C   0  0  0  0  0  0  0  0  0  0  0  0
   11.9409    5.3630   -2.0267 C   0  0  0  0  0  0  0  0  0  0  0  0
   10.1623    2.3644   -1.4027 C   0  0  0  0  0  0  0  0  0  0  0  0
    8.8590    2.9566   -1.6612 C   0  0  0  0  0  0  0  0  0  0  0  0
    7.9449    2.1062   -1.1521 C   0  0  0  0  0  0  0  0  0  0  0  0
    8.6889    1.0024   -0.5712 C   0  0  0  0  0  0  0  0  0  0  0  0
   10.0209    1.1962   -0.7327 N   0  0  0  0  0  0  0  0  0  0  0  0
   12.8889    1.2588   -0.7977 N   0  0  0  0  0  0  0  0  0  0  0  0
   11.5658   -4.2770    2.6233 C   0  0  0  0  0  0  0  0  0  0  0  0
   10.9794   -4.3411    3.8881 C   0  0  0  0  0  0  0  0  0  0  0  0
   11.0149   -5.5193    4.6188 C   0  0  0  0  0  0  0  0  0  0  0  0
   11.6303   -6.6479    4.0946 C   0  0  0  0  0  0  0  0  0  0  0  0
   12.2126   -6.5933    2.8355 C   0  0  0  0  0  0  0  0  0  0  0  0
   12.1832   -5.4158    2.1037 C   0  0  0  0  0  0  0  0  0  0  0  0
    6.9910   -0.0857    0.0567 H   0  0  0  0  0  0  0  0  0  0  0  0
    6.9676   -2.4041    1.3232 H   0  0  0  0  0  0  0  0  0  0  0  0
    8.8504   -4.0295    2.3054 H   0  0  0  0  0  0  0  0  0  0  0  0
   10.7546   -0.7362    0.4793 H   0  0  0  0  0  0  0  0  0  0  0  0
   14.2087   -3.7984    2.5177 H   0  0  0  0  0  0  0  0  0  0  0  0
   16.0406   -2.1517    1.4404 H   0  0  0  0  0  0  0  0  0  0  0  0
   15.9379    2.1597   -1.5699 H   0  0  0  0  0  0  0  0  0  0  0  0
   14.0476    3.7942   -2.5203 H   0  0  0  0  0  0  0  0  0  0  0  0
   10.2719    3.3840   -4.2129 H   0  0  0  0  0  0  0  0  0  0  0  0
   10.2124    5.5049   -5.4744 H   0  0  0  0  0  0  0  0  0  0  0  0
   11.2629    7.5392   -4.5334 H   0  0  0  0  0  0  0  0  0  0  0  0
   12.3672    7.4422   -2.3199 H   0  0  0  0  0  0  0  0  0  0  0  0
   12.4145    5.3256   -1.0518 H   0  0  0  0  0  0  0  0  0  0  0  0
    8.6916    3.9003   -2.1550 H   0  0  0  0  0  0  0  0  0  0  0  0
    6.8697    2.1943   -1.1463 H   0  0  0  0  0  0  0  0  0  0  0  0
   12.1684    0.6714   -0.3909 H   0  0  0  0  0  0  0  0  0  0  0  0
   10.5111   -3.4568    4.3062 H   0  0  0  0  0  0  0  0  0  0  0  0
   10.5609   -5.5558    5.6030 H   0  0  0  0  0  0  0  0  0  0  0  0
   11.6563   -7.5684    4.6666 H   0  0  0  0  0  0  0  0  0  0  0  0
   12.6925   -7.4727    2.4204 H   0  0  0  0  0  0  0  0  0  0  0  0
   12.6276   -5.3784    1.1154 H   0  0  0  0  0  0  0  0  0  0  0  0
   33.4009    0.0760   -0.0509 C   0  0  0  0  0  0  0  0  0  0  0  0
   32.7902    1.1017   -0.7610 C   0  0  0  0  0  0  0  0  0  0  0  0
   33.4401    2.1315   -1.4977 C   0  0  0  0  0  0  0  0  0  0  0  0
   32.4764    2.9418   -2.0290 C   0  0  0  0  0  0  0  0  0  0  0  0
   31.2066    2.4379   -1.6268 C   0  0  0  0  0  0  0  0  0  0  0  0
   31.4467    1.3234   -0.8742 N   0  0  0  0  0  0  0  0  0  0  0  0
   29.9430    2.9510   -1.9409 C   0  0  0  0  0  0  0  0  0  0  0  0
   28.7282    2.3807   -1.5543 C   0  0  0  0  0  0  0  0  0  0  0  0
   27.4305    2.9617   -1.8480 C   0  0  0  0  0  0  0  0  0  0  0  0
   26.5098    2.1245   -1.3268 C   0  0  0  0  0  0  0  0  0  0  0  0
   28.5738    1.2264   -0.8479 N   0  0  0  0  0  0  0  0  0  0  0  0
   27.2464    1.0414   -0.7047 C   0  0  0  0  0  0  0  0  0  0  0  0
   26.6093   -0.0358   -0.0541 C   0  0  0  0  0  0  0  0  0  0  0  0
   27.2468   -1.0936    0.6221 C   0  0  0  0  0  0  0  0  0  0  0  0
   26.6054   -2.1843    1.2665 C   0  0  0  0  0  0  0  0  0  0  0  0
   27.5735   -2.9766    1.8187 C   0  0  0  0  0  0  0  0  0  0  0  0
   28.8371   -2.3892    1.5330 C   0  0  0  0  0  0  0  0  0  0  0  0
   30.0988   -2.8705    1.8972 C   0  0  0  0  0  0  0  0  0  0  0  0
   30.1308   -4.1021    2.7237 C   0  0  0  0  0  0  0  0  0  0  0  0
   30.7483   -5.2589    2.2459 C   0  0  0  0  0  0  0  0  0  0  0  0
   30.7749   -6.4099    3.0189 C   0  0  0  0  0  0  0  0  0  0  0  0
   30.1911   -6.4190    4.2785 C   0  0  0  0  0  0  0  0  0  0  0  0
   29.5770   -5.2716    4.7619 C   0  0  0  0  0  0  0  0  0  0  0  0
   29.5433   -4.1203    3.9895 C   0  0  0  0  0  0  0  0  0  0  0  0
   31.3148   -2.2796    1.5383 C   0  0  0  0  0  0  0  0  0  0  0  0
   32.6183   -2.7686    1.9604 C   0  0  0  0  0  0  0  0  0  0  0  0
   33.5324   -1.9457    1.4081 C   0  0  0  0  0  0  0  0  0  0  0  0
   32.7885   -0.9473    0.6606 C   0  0  0  0  0  0  0  0  0  0  0  0
   31.4564   -1.1746    0.7687 N   0  0  0  0  0  0  0  0  0  0  0  0
   28.5877   -1.2584    0.8005 N   0  0  0  0  0  0  0  0  0  0  0  0
   29.9109    4.1968   -2.7465 C   0  0  0  0  0  0  0  0  0  0  0  0
   30.4912    5.3691   -2.2603 C   0  0  0  0  0  0  0  0  0  0  0  0
   30.4560    6.5335   -3.0129 C   0  0  0  0  0  0  0  0  0  0  0  0
   29.8470    6.5405   -4.2603 C   0  0  0  0  0  0  0  0  0  0  0  0
   29.2708    5.3773   -4.7527 C   0  0  0  0  0  0  0  0  0  0  0  0
   29.2999    4.2123   -4.0012 C   0  0  0  0  0  0  0  0  0  0  0  0
   34.4863    0.0859   -0.0545 H   0  0  0  0  0  0  0  0  0  0  0  0
   34.5091    2.2257   -1.6039 H   0  0  0  0  0  0  0  0  0  0  0  0
   32.6255    3.8082   -2.6528 H   0  0  0  0  0  0  0  0  0  0  0  0
   30.7226    0.7450   -0.4614 H   0  0  0  0  0  0  0  0  0  0  0  0
   27.2675    3.8908   -2.3696 H   0  0  0  0  0  0  0  0  0  0  0  0
   25.4354    2.2141   -1.3398 H   0  0  0  0  0  0  0  0  0  0  0  0
   25.5385   -2.3368    1.2944 H   0  0  0  0  0  0  0  0  0  0  0  0
   27.4295   -3.8931    2.3673 H   0  0  0  0  0  0  0  0  0  0  0  0
   31.1934   -5.2574    1.2572 H   0  0  0  0  0  0  0  0  0  0  0  0
   31.2527   -7.3045    2.6353 H   0  0  0  0  0  0  0  0  0  0  0  0
   30.2147   -7.3189    4.8825 H   0  0  0  0  0  0  0  0  0  0  0  0
   29.1228   -5.2722    5.7466 H   0  0  0  0  0  0  0  0  0  0  0  0
   29.0750   -3.2212    4.3747 H   0  0  0  0  0  0  0  0  0  0  0  0
   32.7855   -3.6193    2.6013 H   0  0  0  0  0  0  0  0  0  0  0  0
   34.6077   -1.9797    1.4883 H   0  0  0  0  0  0  0  0  0  0  0  0
   29.3080   -0.6414    0.4400 H   0  0  0  0  0  0  0  0  0  0  0  0
   30.9546    5.3700   -1.2799 H   0  0  0  0  0  0  0  0  0  0  0  0
   30.9050    7.4401   -2.6224 H   0  0  0  0  0  0  0  0  0  0  0  0
   29.8211    7.4513   -4.8478 H   0  0  0  0  0  0  0  0  0  0  0  0
   28.7961    5.3768   -5.7276 H   0  0  0  0  0  0  0  0  0  0  0  0
   28.8602    3.3016   -4.3925 H   0  0  0  0  0  0  0  0  0  0  0  0
   16.2716   -0.0383   -0.0847 C   0  0  0  0  0  0  0  0  0  0  0  0
   17.4963   -0.0480   -0.1055 C   0  0  0  0  0  0  0  0  0  0  0  0
   18.8384   -0.0582   -0.1179 C   0  0  0  0  0  0  0  0  0  0  0  0
   20.0694   -0.0723   -0.1221 C   0  0  0  0  0  0  0  0  0  0  0  0
   21.4068   -0.0824   -0.1161 C   0  0  0  0  0  0  0  0  0  0  0  0
   22.6378   -0.0849   -0.1015 C   0  0  0  0  0  0  0  0  0  0  0  0
   23.9799   -0.0777   -0.0870 C   0  0  0  0  0  0  0  0  0  0  0  0
   25.2046   -0.0618   -0.0693 C   0  0  0  0  0  0  0  0  0  0  0  0
  1  2  4  0  0  0  0
  2  3  4  0  0  0  0
  3  4  2  0  0  0  0
  4  5  4  0  0  0  0
  2  6  4  0  0  0  0
  5  6  4  0  0  0  0
  5  7  4  0  0  0  0
  7  8  4  0  0  0  0
  8  9  1  0  0  0  0
  9 10  2  0  0  0  0
  8 11  4  0  0  0  0
 10 12  1  0  0  0  0
 11 12  4  0  0  0  0
 12 13  4  0  0  0  0
 13 14  4  0  0  0  0
 14 15  4  0  0  0  0
 15 16  2  0  0  0  0
 16 17  4  0  0  0  0
 17 18  4  0  0  0  0
 18 19  1  0  0  0  0
 19 20  4  0  0  0  0
 20 21  4  0  0  0  0
 21 22  4  0  0  0  0
 22 23  4  0  0  0  0
 19 24  4  0  0  0  0
 23 24  4  0  0  0  0
 18 25  4  0  0  0  0
 25 26  1  0  0  0  0
 26 27  2  0  0  0  0
  1 28  4  0  0  0  0
 27 28  1  0  0  0  0
 25 29  4  0  0  0  0
 28 29  4  0  0  0  0
 14 30  4  0  0  0  0
 17 30  4  0  0  0  0
  7 31  1  0  0  0  0
 31 32  4  0  0  0  0
 32 33  4  0  0  0  0
 33 34  4  0  0  0  0
 34 35  4  0  0  0  0
 31 36  4  0  0  0  0
 35 36  4  0  0  0  0
  1 37  1  0  0  0  0
  3 38  1  0  0  0  0
  4 39  1  0  0  0  0
  6 40  1  0  0  0  0
  9 41  1  0  0  0  0
 10 42  1  0  0  0  0
 15 43  1  0  0  0  0
 16 44  1  0  0  0  0
 20 45  1  0  0  0  0
 21 46  1  0  0  0  0
 22 47  1  0  0  0  0
 23 48  1  0  0  0  0
 24 49  1  0  0  0  0
 26 50  1  0  0  0  0
 27 51  1  0  0  0  0
 30 52  1  0  0  0  0
 32 53  1  0  0  0  0
 33 54  1  0  0  0  0
 34 55  1  0  0  0  0
 35 56  1  0  0  0  0
 36 57  1  0  0  0  0
 58 59  4  0  0  0  0
 59 60  4  0  0  0  0
 60 61  2  0  0  0  0
 61 62  4  0  0  0  0
 59 63  4  0  0  0  0
 62 63  4  0  0  0  0
 62 64  4  0  0  0  0
 64 65  4  0  0  0  0
 65 66  1  0  0  0  0
 66 67  2  0  0  0  0
 65 68  4  0  0  0  0
 67 69  1  0  0  0  0
 68 69  4  0  0  0  0
 69 70  4  0  0  0  0
 70 71  4  0  0  0  0
 71 72  4  0  0  0  0
 72 73  2  0  0  0  0
 73 74  4  0  0  0  0
 74 75  4  0  0  0  0
 75 76  1  0  0  0  0
 76 77  4  0  0  0  0
 77 78  4  0  0  0  0
 78 79  4  0  0  0  0
 79 80  4  0  0  0  0
 76 81  4  0  0  0  0
 80 81  4  0  0  0  0
 75 82  4  0  0  0  0
 82 83  1  0  0  0  0
 83 84  2  0  0  0  0
 58 85  4  0  0  0  0
 84 85  1  0  0  0  0
 82 86  4  0  0  0  0
 85 86  4  0  0  0  0
 71 87  4  0  0  0  0
 74 87  4  0  0  0  0
 64 88  1  0  0  0  0
 88 89  4  0  0  0  0
 89 90  4  0  0  0  0
 90 91  4  0  0  0  0
 91 92  4  0  0  0  0
 88 93  4  0  0  0  0
 92 93  4  0  0  0  0
 58 94  1  0  0  0  0
 60 95  1  0  0  0  0
 61 96  1  0  0  0  0
 63 97  1  0  0  0  0
 66 98  1  0  0  0  0
 67 99  1  0  0  0  0
 72100  1  0  0  0  0
 73101  1  0  0  0  0
 77102  1  0  0  0  0
 78103  1  0  0  0  0
 79104  1  0  0  0  0
 80105  1  0  0  0  0
 81106  1  0  0  0  0
 83107  1  0  0  0  0
 84108  1  0  0  0  0
 87109  1  0  0  0  0
 89110  1  0  0  0  0
 90111  1  0  0  0  0
 91112  1  0  0  0  0
 92113  1  0  0  0  0
 93114  1  0  0  0  0
 13115  4  0  0  0  0
115116  3  0  0  0  0
116117  4  0  0  0  0
117118  3  0  0  0  0
118119  4  0  0  0  0
119120  3  0  0  0  0
120121  4  0  0  0  0
 70122  4  0  0  0  0
121122  3  0  0  0  0
M  END
