 xtb: 6.5.1 (b24c23e)
          07302211593D

254293  0     0  0            999 V2000
   38.9619   -0.0170   -0.0358 Zn  0  0  0  0  0  0  0  0  0  0  0  0
   35.5530   -0.0710   -0.1017 C   0  0  0  0  0  0  0  0  0  0  0  0
   36.1900   -1.3041   -0.0294 C   0  0  0  0  0  0  0  0  0  0  0  0
   35.5228   -2.5723    0.0633 C   0  0  0  0  0  0  0  0  0  0  0  0
   36.4871   -3.5235    0.1396 C   0  0  0  0  0  0  0  0  0  0  0  0
   37.7566   -2.8483    0.0827 C   0  0  0  0  0  0  0  0  0  0  0  0
   37.5406   -1.5046   -0.0127 N   0  0  0  0  0  0  0  0  0  0  0  0
   39.0111   -3.4684    0.1435 C   0  0  0  0  0  0  0  0  0  0  0  0
   39.0331   -4.9500    0.2353 C   0  0  0  0  0  0  0  0  0  0  0  0
   38.4930   -5.7345   -0.7841 C   0  0  0  0  0  0  0  0  0  0  0  0
   38.5149   -7.1184   -0.7009 C   0  0  0  0  0  0  0  0  0  0  0  0
   39.0756   -7.7348    0.4151 C   0  0  0  0  0  0  0  0  0  0  0  0
   39.1150   -9.0871    0.5389 O   0  0  0  0  0  0  0  0  0  0  0  0
   39.6155   -6.9632    1.4423 C   0  0  0  0  0  0  0  0  0  0  0  0
   39.5951   -5.5830    1.3468 C   0  0  0  0  0  0  0  0  0  0  0  0
   40.2459   -2.8107    0.1280 C   0  0  0  0  0  0  0  0  0  0  0  0
   41.5296   -3.4565    0.1321 C   0  0  0  0  0  0  0  0  0  0  0  0
   42.4702   -2.4785    0.0936 C   0  0  0  0  0  0  0  0  0  0  0  0
   40.4321   -1.4546    0.0751 N   0  0  0  0  0  0  0  0  0  0  0  0
   41.7724   -1.2270    0.0587 C   0  0  0  0  0  0  0  0  0  0  0  0
   42.3965    0.0362    0.0048 C   0  0  0  0  0  0  0  0  0  0  0  0
   41.7352    1.2798   -0.0529 C   0  0  0  0  0  0  0  0  0  0  0  0
   42.3953    2.5497   -0.1322 C   0  0  0  0  0  0  0  0  0  0  0  0
   41.4257    3.4983   -0.1854 C   0  0  0  0  0  0  0  0  0  0  0  0
   40.1619    2.8166   -0.1323 C   0  0  0  0  0  0  0  0  0  0  0  0
   40.3886    1.4676   -0.0590 N   0  0  0  0  0  0  0  0  0  0  0  0
   38.9082    3.4353   -0.1813 C   0  0  0  0  0  0  0  0  0  0  0  0
   38.8851    4.9192   -0.2299 C   0  0  0  0  0  0  0  0  0  0  0  0
   39.4117    5.6711    0.8232 C   0  0  0  0  0  0  0  0  0  0  0  0
   39.3882    7.0541    0.7885 C   0  0  0  0  0  0  0  0  0  0  0  0
   38.8401    7.7083   -0.3131 C   0  0  0  0  0  0  0  0  0  0  0  0
   38.8359    9.0668   -0.3167 O   0  0  0  0  0  0  0  0  0  0  0  0
   38.3151    6.9723   -1.3726 C   0  0  0  0  0  0  0  0  0  0  0  0
   38.3363    5.5868   -1.3249 C   0  0  0  0  0  0  0  0  0  0  0  0
   37.6729    2.7752   -0.1853 C   0  0  0  0  0  0  0  0  0  0  0  0
   36.3840    3.4149   -0.1952 C   0  0  0  0  0  0  0  0  0  0  0  0
   35.4483    2.4327   -0.1799 C   0  0  0  0  0  0  0  0  0  0  0  0
   36.1528    1.1818   -0.1495 C   0  0  0  0  0  0  0  0  0  0  0  0
   37.4969    1.4228   -0.1515 N   0  0  0  0  0  0  0  0  0  0  0  0
   34.4674   -0.0875   -0.1058 H   0  0  0  0  0  0  0  0  0  0  0  0
   34.4523   -2.7055    0.0770 H   0  0  0  0  0  0  0  0  0  0  0  0
   36.3544   -4.5890    0.2393 H   0  0  0  0  0  0  0  0  0  0  0  0
   38.0679   -5.2564   -1.6597 H   0  0  0  0  0  0  0  0  0  0  0  0
   38.0996   -7.7231   -1.5001 H   0  0  0  0  0  0  0  0  0  0  0  0
   38.7153   -9.5222   -0.2261 H   0  0  0  0  0  0  0  0  0  0  0  0
   40.0447   -7.4559    2.3061 H   0  0  0  0  0  0  0  0  0  0  0  0
   40.0044   -4.9825    2.1516 H   0  0  0  0  0  0  0  0  0  0  0  0
   41.6894   -4.5226    0.1468 H   0  0  0  0  0  0  0  0  0  0  0  0
   43.5431   -2.5877    0.0834 H   0  0  0  0  0  0  0  0  0  0  0  0
   43.4645    2.6892   -0.1512 H   0  0  0  0  0  0  0  0  0  0  0  0
   41.5531    4.5657   -0.2684 H   0  0  0  0  0  0  0  0  0  0  0  0
   39.8277    5.1619    1.6854 H   0  0  0  0  0  0  0  0  0  0  0  0
   39.7891    7.6391    1.6070 H   0  0  0  0  0  0  0  0  0  0  0  0
   38.4352    9.4151   -1.1244 H   0  0  0  0  0  0  0  0  0  0  0  0
   37.8936    7.4859   -2.2302 H   0  0  0  0  0  0  0  0  0  0  0  0
   37.9382    5.0151   -2.1560 H   0  0  0  0  0  0  0  0  0  0  0  0
   36.2199    4.4807   -0.1993 H   0  0  0  0  0  0  0  0  0  0  0  0
   34.3743    2.5349   -0.1800 H   0  0  0  0  0  0  0  0  0  0  0  0
   94.8112    0.0019   -0.0183 Zn  0  0  0  0  0  0  0  0  0  0  0  0
   98.2191    0.0493   -0.1298 C   0  0  0  0  0  0  0  0  0  0  0  0
   97.5797    1.2795   -0.2256 C   0  0  0  0  0  0  0  0  0  0  0  0
   98.2446    2.5485   -0.3229 C   0  0  0  0  0  0  0  0  0  0  0  0
   97.2788    3.5001   -0.3702 C   0  0  0  0  0  0  0  0  0  0  0  0
   96.0105    2.8226   -0.3136 C   0  0  0  0  0  0  0  0  0  0  0  0
   96.2288    1.4792   -0.2198 N   0  0  0  0  0  0  0  0  0  0  0  0
   94.7553    3.4444   -0.3236 C   0  0  0  0  0  0  0  0  0  0  0  0
   94.7314    4.9236   -0.4482 C   0  0  0  0  0  0  0  0  0  0  0  0
   95.2554    5.5495   -1.5796 C   0  0  0  0  0  0  0  0  0  0  0  0
   95.2314    6.9304   -1.7012 C   0  0  0  0  0  0  0  0  0  0  0  0
   94.6846    7.7045   -0.6805 C   0  0  0  0  0  0  0  0  0  0  0  0
   94.6436    9.0603   -0.7572 O   0  0  0  0  0  0  0  0  0  0  0  0
   94.1612    7.0926    0.4569 C   0  0  0  0  0  0  0  0  0  0  0  0
   94.1837    5.7134    0.5657 C   0  0  0  0  0  0  0  0  0  0  0  0
   93.5222    2.7906   -0.2268 C   0  0  0  0  0  0  0  0  0  0  0  0
   92.2369    3.4297   -0.2935 C   0  0  0  0  0  0  0  0  0  0  0  0
   91.2985    2.4551   -0.1826 C   0  0  0  0  0  0  0  0  0  0  0  0
   93.3390    1.4401   -0.0878 N   0  0  0  0  0  0  0  0  0  0  0  0
   91.9992    1.2112   -0.0547 C   0  0  0  0  0  0  0  0  0  0  0  0
   91.3775   -0.0486    0.0659 C   0  0  0  0  0  0  0  0  0  0  0  0
   92.0411   -1.2883    0.1664 C   0  0  0  0  0  0  0  0  0  0  0  0
   91.3833   -2.5580    0.2646 C   0  0  0  0  0  0  0  0  0  0  0  0
   92.3546   -3.5038    0.3345 C   0  0  0  0  0  0  0  0  0  0  0  0
   93.6172   -2.8195    0.2857 C   0  0  0  0  0  0  0  0  0  0  0  0
   93.3881   -1.4734    0.1760 N   0  0  0  0  0  0  0  0  0  0  0  0
   94.8719   -3.4375    0.3138 C   0  0  0  0  0  0  0  0  0  0  0  0
   94.8981   -4.9139    0.4702 C   0  0  0  0  0  0  0  0  0  0  0  0
   94.3802   -5.5144    1.6203 C   0  0  0  0  0  0  0  0  0  0  0  0
   94.4071   -6.8890    1.7763 C   0  0  0  0  0  0  0  0  0  0  0  0
   94.9499   -7.6878    0.7716 C   0  0  0  0  0  0  0  0  0  0  0  0
   94.9578   -9.0339    0.9551 O   0  0  0  0  0  0  0  0  0  0  0  0
   95.4660   -7.1039   -0.3827 C   0  0  0  0  0  0  0  0  0  0  0  0
   95.4415   -5.7250   -0.5262 C   0  0  0  0  0  0  0  0  0  0  0  0
   96.1056   -2.7827    0.2091 C   0  0  0  0  0  0  0  0  0  0  0  0
   97.3959   -3.4160    0.2772 C   0  0  0  0  0  0  0  0  0  0  0  0
   98.3293   -2.4402    0.1456 C   0  0  0  0  0  0  0  0  0  0  0  0
   97.6220   -1.1983    0.0067 C   0  0  0  0  0  0  0  0  0  0  0  0
   96.2785   -1.4387    0.0518 N   0  0  0  0  0  0  0  0  0  0  0  0
   99.3045    0.0661   -0.1490 H   0  0  0  0  0  0  0  0  0  0  0  0
   99.3148    2.6833   -0.3424 H   0  0  0  0  0  0  0  0  0  0  0  0
   97.4099    4.5690   -0.4247 H   0  0  0  0  0  0  0  0  0  0  0  0
   95.6694    4.9475   -2.3810 H   0  0  0  0  0  0  0  0  0  0  0  0
   95.6341    7.4108   -2.5866 H   0  0  0  0  0  0  0  0  0  0  0  0
   95.0309    9.3776   -1.5840 H   0  0  0  0  0  0  0  0  0  0  0  0
   93.7430    7.7072    1.2445 H   0  0  0  0  0  0  0  0  0  0  0  0
   93.7874    5.2382    1.4562 H   0  0  0  0  0  0  0  0  0  0  0  0
   92.0741    4.4874   -0.4243 H   0  0  0  0  0  0  0  0  0  0  0  0
   90.2253    2.5610   -0.1926 H   0  0  0  0  0  0  0  0  0  0  0  0
   90.3143   -2.7002    0.2722 H   0  0  0  0  0  0  0  0  0  0  0  0
   92.2291   -4.5727    0.3984 H   0  0  0  0  0  0  0  0  0  0  0  0
   93.9683   -4.8921    2.4070 H   0  0  0  0  0  0  0  0  0  0  0  0
   94.0130   -7.3564    2.6703 H   0  0  0  0  0  0  0  0  0  0  0  0
   95.3539   -9.4892    0.2002 H   0  0  0  0  0  0  0  0  0  0  0  0
   95.8832   -7.7300   -1.1642 H   0  0  0  0  0  0  0  0  0  0  0  0
   95.8326   -5.2726   -1.4307 H   0  0  0  0  0  0  0  0  0  0  0  0
   97.5626   -4.4716    0.4211 H   0  0  0  0  0  0  0  0  0  0  0  0
   99.4035   -2.5402    0.1495 H   0  0  0  0  0  0  0  0  0  0  0  0
   43.8013    0.0548   -0.0024 C   0  0  0  0  0  0  0  0  0  0  0  0
   45.0261    0.0620   -0.0115 C   0  0  0  0  0  0  0  0  0  0  0  0
   46.3685    0.0675   -0.0232 C   0  0  0  0  0  0  0  0  0  0  0  0
   47.5994    0.0661   -0.0312 C   0  0  0  0  0  0  0  0  0  0  0  0
   48.9371    0.0634   -0.0436 C   0  0  0  0  0  0  0  0  0  0  0  0
   50.1680    0.0587   -0.0535 C   0  0  0  0  0  0  0  0  0  0  0  0
   51.5103    0.0533   -0.0628 C   0  0  0  0  0  0  0  0  0  0  0  0
   52.7353    0.0487   -0.0718 C   0  0  0  0  0  0  0  0  0  0  0  0
   62.4209   -0.0294   -0.0263 C   0  0  0  0  0  0  0  0  0  0  0  0
   63.6461   -0.0319   -0.0244 C   0  0  0  0  0  0  0  0  0  0  0  0
   64.9877   -0.0332   -0.0239 C   0  0  0  0  0  0  0  0  0  0  0  0
   66.2188   -0.0296   -0.0247 C   0  0  0  0  0  0  0  0  0  0  0  0
   67.5557   -0.0258   -0.0282 C   0  0  0  0  0  0  0  0  0  0  0  0
   68.7869   -0.0212   -0.0332 C   0  0  0  0  0  0  0  0  0  0  0  0
   70.1284   -0.0178   -0.0390 C   0  0  0  0  0  0  0  0  0  0  0  0
   71.3537   -0.0152   -0.0436 C   0  0  0  0  0  0  0  0  0  0  0  0
   81.0390   -0.0736    0.0082 C   0  0  0  0  0  0  0  0  0  0  0  0
   82.2640   -0.0820    0.0225 C   0  0  0  0  0  0  0  0  0  0  0  0
   83.6062   -0.0893    0.0383 C   0  0  0  0  0  0  0  0  0  0  0  0
   84.8370   -0.0954    0.0521 C   0  0  0  0  0  0  0  0  0  0  0  0
   86.1747   -0.0954    0.0637 C   0  0  0  0  0  0  0  0  0  0  0  0
   87.4055   -0.0921    0.0714 C   0  0  0  0  0  0  0  0  0  0  0  0
   88.7480   -0.0826    0.0765 C   0  0  0  0  0  0  0  0  0  0  0  0
   89.9728   -0.0700    0.0737 C   0  0  0  0  0  0  0  0  0  0  0  0
   57.5787    0.0142   -0.0577 Zn  0  0  0  0  0  0  0  0  0  0  0  0
   54.1396    0.0416   -0.0734 C   0  0  0  0  0  0  0  0  0  0  0  0
   54.7890    1.1001    0.5944 C   0  0  0  0  0  0  0  0  0  0  0  0
   54.1167    2.1552    1.2925 C   0  0  0  0  0  0  0  0  0  0  0  0
   55.0771    2.9731    1.7953 C   0  0  0  0  0  0  0  0  0  0  0  0
   56.3459    2.4287    1.4005 C   0  0  0  0  0  0  0  0  0  0  0  0
   56.1336    1.2845    0.6784 N   0  0  0  0  0  0  0  0  0  0  0  0
   57.5945    2.9717    1.7242 C   0  0  0  0  0  0  0  0  0  0  0  0
   57.6024    4.2436    2.4901 C   0  0  0  0  0  0  0  0  0  0  0  0
   58.1795    4.3041    3.7609 C   0  0  0  0  0  0  0  0  0  0  0  0
   58.1889    5.4861    4.4801 C   0  0  0  0  0  0  0  0  0  0  0  0
   57.6230    6.6345    3.9294 C   0  0  0  0  0  0  0  0  0  0  0  0
   57.6531    7.7789    4.6603 O   0  0  0  0  0  0  0  0  0  0  0  0
   57.0471    6.5906    2.6619 C   0  0  0  0  0  0  0  0  0  0  0  0
   57.0358    5.3995    1.9524 C   0  0  0  0  0  0  0  0  0  0  0  0
   58.8372    2.4216    1.3909 C   0  0  0  0  0  0  0  0  0  0  0  0
   60.1122    3.0142    1.6834 C   0  0  0  0  0  0  0  0  0  0  0  0
   61.0638    2.1779    1.1944 C   0  0  0  0  0  0  0  0  0  0  0  0
   59.0371    1.2461    0.7171 N   0  0  0  0  0  0  0  0  0  0  0  0
   60.3796    1.0732    0.5909 C   0  0  0  0  0  0  0  0  0  0  0  0
   61.0175   -0.0191   -0.0323 C   0  0  0  0  0  0  0  0  0  0  0  0
   60.3676   -1.0993   -0.6644 C   0  0  0  0  0  0  0  0  0  0  0  0
   61.0389   -2.2168   -1.2583 C   0  0  0  0  0  0  0  0  0  0  0  0
   60.0787   -3.0322   -1.7653 C   0  0  0  0  0  0  0  0  0  0  0  0
   58.8114   -2.4139   -1.4935 C   0  0  0  0  0  0  0  0  0  0  0  0
   59.0241   -1.2446   -0.8128 N   0  0  0  0  0  0  0  0  0  0  0  0
   57.5635   -2.9368   -1.8507 C   0  0  0  0  0  0  0  0  0  0  0  0
   57.5591   -4.2022   -2.6272 C   0  0  0  0  0  0  0  0  0  0  0  0
   56.9577   -5.3506   -2.1116 C   0  0  0  0  0  0  0  0  0  0  0  0
   56.9562   -6.5347   -2.8328 C   0  0  0  0  0  0  0  0  0  0  0  0
   57.5544   -6.5791   -4.0898 C   0  0  0  0  0  0  0  0  0  0  0  0
   57.5723   -7.7167   -4.8318 O   0  0  0  0  0  0  0  0  0  0  0  0
   58.1559   -5.4384   -4.6182 C   0  0  0  0  0  0  0  0  0  0  0  0
   58.1589   -4.2635   -3.8875 C   0  0  0  0  0  0  0  0  0  0  0  0
   56.3207   -2.3721   -1.5416 C   0  0  0  0  0  0  0  0  0  0  0  0
   55.0472   -2.8915   -1.9544 C   0  0  0  0  0  0  0  0  0  0  0  0
   54.0954   -2.0623   -1.4539 C   0  0  0  0  0  0  0  0  0  0  0  0
   54.7779   -1.0236   -0.7415 C   0  0  0  0  0  0  0  0  0  0  0  0
   56.1200   -1.2293   -0.8141 N   0  0  0  0  0  0  0  0  0  0  0  0
   53.0466    2.2483    1.3885 H   0  0  0  0  0  0  0  0  0  0  0  0
   54.9392    3.8597    2.3929 H   0  0  0  0  0  0  0  0  0  0  0  0
   58.6092    3.4078    4.1944 H   0  0  0  0  0  0  0  0  0  0  0  0
   58.6295    5.5338    5.4682 H   0  0  0  0  0  0  0  0  0  0  0  0
   57.2319    8.5095    4.1880 H   0  0  0  0  0  0  0  0  0  0  0  0
   56.6119    7.4880    2.2354 H   0  0  0  0  0  0  0  0  0  0  0  0
   56.5982    5.3698    0.9607 H   0  0  0  0  0  0  0  0  0  0  0  0
   60.2601    3.9562    2.1864 H   0  0  0  0  0  0  0  0  0  0  0  0
   62.1351    2.2962    1.2292 H   0  0  0  0  0  0  0  0  0  0  0  0
   62.1079   -2.3575   -1.2744 H   0  0  0  0  0  0  0  0  0  0  0  0
   60.2154   -3.9764   -2.2673 H   0  0  0  0  0  0  0  0  0  0  0  0
   56.5028   -5.3210   -1.1277 H   0  0  0  0  0  0  0  0  0  0  0  0
   56.4934   -7.4263   -2.4233 H   0  0  0  0  0  0  0  0  0  0  0  0
   57.1250   -8.4417   -4.3753 H   0  0  0  0  0  0  0  0  0  0  0  0
   58.6142   -5.4864   -5.5983 H   0  0  0  0  0  0  0  0  0  0  0  0
   58.6164   -3.3729   -4.3039 H   0  0  0  0  0  0  0  0  0  0  0  0
   54.9007   -3.7705   -2.5613 H   0  0  0  0  0  0  0  0  0  0  0  0
   53.0249   -2.1366   -1.5616 H   0  0  0  0  0  0  0  0  0  0  0  0
   76.1964   -0.0327   -0.0369 Zn  0  0  0  0  0  0  0  0  0  0  0  0
   72.7571   -0.0166   -0.0469 C   0  0  0  0  0  0  0  0  0  0  0  0
   73.4041    1.0420    0.6235 C   0  0  0  0  0  0  0  0  0  0  0  0
   72.7294    2.0933    1.3248 C   0  0  0  0  0  0  0  0  0  0  0  0
   73.6879    2.9168    1.8220 C   0  0  0  0  0  0  0  0  0  0  0  0
   74.9576    2.3792    1.4209 C   0  0  0  0  0  0  0  0  0  0  0  0
   74.7478    1.2328    0.7015 N   0  0  0  0  0  0  0  0  0  0  0  0
   76.2047    2.9305    1.7352 C   0  0  0  0  0  0  0  0  0  0  0  0
   76.2076    4.2081    2.4916 C   0  0  0  0  0  0  0  0  0  0  0  0
   76.7884    4.2838    3.7599 C   0  0  0  0  0  0  0  0  0  0  0  0
   76.7907    5.4719    4.4689 C   0  0  0  0  0  0  0  0  0  0  0  0
   76.2143    6.6113    3.9104 C   0  0  0  0  0  0  0  0  0  0  0  0
   76.2384    7.7622    4.6312 O   0  0  0  0  0  0  0  0  0  0  0  0
   75.6337    6.5520    2.6458 C   0  0  0  0  0  0  0  0  0  0  0  0
   75.6292    5.3549    1.9466 C   0  0  0  0  0  0  0  0  0  0  0  0
   77.4489    2.3846    1.3996 C   0  0  0  0  0  0  0  0  0  0  0  0
   78.7223    2.9836    1.6852 C   0  0  0  0  0  0  0  0  0  0  0  0
   79.6758    2.1467    1.2012 C   0  0  0  0  0  0  0  0  0  0  0  0
   77.6515    1.2054    0.7331 N   0  0  0  0  0  0  0  0  0  0  0  0
   78.9946    1.0355    0.6063 C   0  0  0  0  0  0  0  0  0  0  0  0
   79.6349   -0.0610   -0.0069 C   0  0  0  0  0  0  0  0  0  0  0  0
   78.9874   -1.1440   -0.6361 C   0  0  0  0  0  0  0  0  0  0  0  0
   79.6604   -2.2619   -1.2276 C   0  0  0  0  0  0  0  0  0  0  0  0
   78.7019   -3.0760   -1.7400 C   0  0  0  0  0  0  0  0  0  0  0  0
   77.4339   -2.4577   -1.4723 C   0  0  0  0  0  0  0  0  0  0  0  0
   77.6441   -1.2892   -0.7897 N   0  0  0  0  0  0  0  0  0  0  0  0
   76.1873   -2.9800   -1.8356 C   0  0  0  0  0  0  0  0  0  0  0  0
   76.1839   -4.2408   -2.6194 C   0  0  0  0  0  0  0  0  0  0  0  0
   75.5800   -5.3918   -2.1125 C   0  0  0  0  0  0  0  0  0  0  0  0
   75.5742   -6.5699   -2.8434 C   0  0  0  0  0  0  0  0  0  0  0  0
   76.1705   -6.6055   -4.1016 C   0  0  0  0  0  0  0  0  0  0  0  0
   76.1833   -7.7366   -4.8535 O   0  0  0  0  0  0  0  0  0  0  0  0
   76.7751   -5.4623   -4.6210 C   0  0  0  0  0  0  0  0  0  0  0  0
   76.7826   -4.2935   -3.8806 C   0  0  0  0  0  0  0  0  0  0  0  0
   74.9435   -2.4179   -1.5271 C   0  0  0  0  0  0  0  0  0  0  0  0
   73.6711   -2.9377   -1.9432 C   0  0  0  0  0  0  0  0  0  0  0  0
   72.7175   -2.1131   -1.4386 C   0  0  0  0  0  0  0  0  0  0  0  0
   73.3980   -1.0763   -0.7214 C   0  0  0  0  0  0  0  0  0  0  0  0
   74.7402   -1.2785   -0.7947 N   0  0  0  0  0  0  0  0  0  0  0  0
   71.6593    2.1805    1.4259 H   0  0  0  0  0  0  0  0  0  0  0  0
   73.5483    3.8031    2.4198 H   0  0  0  0  0  0  0  0  0  0  0  0
   77.2263    3.3946    4.1997 H   0  0  0  0  0  0  0  0  0  0  0  0
   77.2340    5.5315    5.4553 H   0  0  0  0  0  0  0  0  0  0  0  0
   75.8136    8.4866    4.1525 H   0  0  0  0  0  0  0  0  0  0  0  0
   75.1893    7.4421    2.2134 H   0  0  0  0  0  0  0  0  0  0  0  0
   75.1876    5.3129    0.9571 H   0  0  0  0  0  0  0  0  0  0  0  0
   78.8677    3.9297    2.1812 H   0  0  0  0  0  0  0  0  0  0  0  0
   80.7468    2.2690    1.2333 H   0  0  0  0  0  0  0  0  0  0  0  0
   80.7294   -2.4029   -1.2396 H   0  0  0  0  0  0  0  0  0  0  0  0
   78.8398   -4.0196   -2.2430 H   0  0  0  0  0  0  0  0  0  0  0  0
   75.1257   -5.3689   -1.1282 H   0  0  0  0  0  0  0  0  0  0  0  0
   75.1089   -7.4634   -2.4411 H   0  0  0  0  0  0  0  0  0  0  0  0
   75.7371   -8.4651   -4.4012 H   0  0  0  0  0  0  0  0  0  0  0  0
   77.2315   -5.5033   -5.6023 H   0  0  0  0  0  0  0  0  0  0  0  0
   77.2421   -3.4007   -4.2901 H   0  0  0  0  0  0  0  0  0  0  0  0
   73.5261   -3.8139   -2.5544 H   0  0  0  0  0  0  0  0  0  0  0  0
   71.6472   -2.1892   -1.5466 H   0  0  0  0  0  0  0  0  0  0  0  0
  2  3  4  0  0  0  0
  3  4  1  0  0  0  0
  4  5  2  0  0  0  0
  5  6  4  0  0  0  0
  1  7  1  0  0  0  0
  3  7  4  0  0  0  0
  6  7  4  0  0  0  0
  6  8  4  0  0  0  0
  8  9  1  0  0  0  0
  9 10  4  0  0  0  0
 10 11  4  0  0  0  0
 11 12  4  0  0  0  0
 12 13  1  0  0  0  0
 12 14  4  0  0  0  0
  9 15  4  0  0  0  0
 14 15  4  0  0  0  0
  8 16  4  0  0  0  0
 16 17  4  0  0  0  0
 17 18  2  0  0  0  0
  1 19  1  0  0  0  0
 16 19  4  0  0  0  0
 18 20  4  0  0  0  0
 19 20  4  0  0  0  0
 20 21  4  0  0  0  0
 21 22  4  0  0  0  0
 22 23  4  0  0  0  0
 23 24  2  0  0  0  0
 24 25  4  0  0  0  0
  1 26  1  0  0  0  0
 22 26  4  0  0  0  0
 25 26  4  0  0  0  0
 25 27  4  0  0  0  0
 27 28  1  0  0  0  0
 28 29  4  0  0  0  0
 29 30  4  0  0  0  0
 30 31  4  0  0  0  0
 31 32  1  0  0  0  0
 31 33  4  0  0  0  0
 28 34  4  0  0  0  0
 33 34  4  0  0  0  0
 27 35  4  0  0  0  0
 35 36  4  0  0  0  0
 36 37  2  0  0  0  0
  2 38  4  0  0  0  0
 37 38  1  0  0  0  0
  1 39  1  0  0  0  0
 35 39  4  0  0  0  0
 38 39  4  0  0  0  0
  2 40  1  0  0  0  0
  4 41  1  0  0  0  0
  5 42  1  0  0  0  0
 10 43  1  0  0  0  0
 11 44  1  0  0  0  0
 13 45  1  0  0  0  0
 14 46  1  0  0  0  0
 15 47  1  0  0  0  0
 17 48  1  0  0  0  0
 18 49  1  0  0  0  0
 23 50  1  0  0  0  0
 24 51  1  0  0  0  0
 29 52  1  0  0  0  0
 30 53  1  0  0  0  0
 32 54  1  0  0  0  0
 33 55  1  0  0  0  0
 34 56  1  0  0  0  0
 36 57  1  0  0  0  0
 37 58  1  0  0  0  0
 60 61  4  0  0  0  0
 61 62  1  0  0  0  0
 62 63  2  0  0  0  0
 63 64  4  0  0  0  0
 59 65  1  0  0  0  0
 61 65  4  0  0  0  0
 64 65  4  0  0  0  0
 64 66  4  0  0  0  0
 66 67  1  0  0  0  0
 67 68  4  0  0  0  0
 68 69  4  0  0  0  0
 69 70  4  0  0  0  0
 70 71  1  0  0  0  0
 70 72  4  0  0  0  0
 67 73  4  0  0  0  0
 72 73  4  0  0  0  0
 66 74  4  0  0  0  0
 74 75  4  0  0  0  0
 75 76  2  0  0  0  0
 59 77  1  0  0  0  0
 74 77  4  0  0  0  0
 76 78  4  0  0  0  0
 77 78  4  0  0  0  0
 78 79  4  0  0  0  0
 79 80  4  0  0  0  0
 80 81  4  0  0  0  0
 81 82  2  0  0  0  0
 82 83  4  0  0  0  0
 59 84  1  0  0  0  0
 80 84  4  0  0  0  0
 83 84  4  0  0  0  0
 83 85  4  0  0  0  0
 85 86  1  0  0  0  0
 86 87  4  0  0  0  0
 87 88  4  0  0  0  0
 88 89  4  0  0  0  0
 89 90  1  0  0  0  0
 89 91  4  0  0  0  0
 86 92  4  0  0  0  0
 91 92  4  0  0  0  0
 85 93  4  0  0  0  0
 93 94  4  0  0  0  0
 94 95  2  0  0  0  0
 60 96  4  0  0  0  0
 95 96  1  0  0  0  0
 59 97  1  0  0  0  0
 93 97  4  0  0  0  0
 96 97  4  0  0  0  0
 60 98  1  0  0  0  0
 62 99  1  0  0  0  0
 63100  1  0  0  0  0
 68101  1  0  0  0  0
 69102  1  0  0  0  0
 71103  1  0  0  0  0
 72104  1  0  0  0  0
 73105  1  0  0  0  0
 75106  1  0  0  0  0
 76107  1  0  0  0  0
 81108  1  0  0  0  0
 82109  1  0  0  0  0
 87110  1  0  0  0  0
 88111  1  0  0  0  0
 90112  1  0  0  0  0
 91113  1  0  0  0  0
 92114  1  0  0  0  0
 94115  1  0  0  0  0
 95116  1  0  0  0  0
 21117  4  0  0  0  0
117118  3  0  0  0  0
118119  4  0  0  0  0
119120  3  0  0  0  0
120121  4  0  0  0  0
121122  3  0  0  0  0
122123  4  0  0  0  0
123124  3  0  0  0  0
125126  3  0  0  0  0
126127  4  0  0  0  0
127128  3  0  0  0  0
128129  4  0  0  0  0
129130  3  0  0  0  0
130131  4  0  0  0  0
131132  3  0  0  0  0
133134  3  0  0  0  0
134135  4  0  0  0  0
135136  3  0  0  0  0
136137  4  0  0  0  0
137138  3  0  0  0  0
138139  4  0  0  0  0
 79140  4  0  0  0  0
139140  3  0  0  0  0
124142  4  0  0  0  0
142143  4  0  0  0  0
143144  4  0  0  0  0
144145  2  0  0  0  0
145146  4  0  0  0  0
141147  1  0  0  0  0
143147  4  0  0  0  0
146147  4  0  0  0  0
146148  4  0  0  0  0
148149  1  0  0  0  0
149150  4  0  0  0  0
150151  4  0  0  0  0
151152  4  0  0  0  0
152153  1  0  0  0  0
152154  4  0  0  0  0
149155  4  0  0  0  0
154155  4  0  0  0  0
148156  4  0  0  0  0
156157  4  0  0  0  0
157158  2  0  0  0  0
141159  1  0  0  0  0
156159  4  0  0  0  0
158160  4  0  0  0  0
159160  4  0  0  0  0
125161  4  0  0  0  0
160161  4  0  0  0  0
161162  4  0  0  0  0
162163  4  0  0  0  0
163164  2  0  0  0  0
164165  4  0  0  0  0
141166  1  0  0  0  0
162166  4  0  0  0  0
165166  4  0  0  0  0
165167  4  0  0  0  0
167168  1  0  0  0  0
168169  4  0  0  0  0
169170  4  0  0  0  0
170171  4  0  0  0  0
171172  1  0  0  0  0
171173  4  0  0  0  0
168174  4  0  0  0  0
173174  4  0  0  0  0
167175  4  0  0  0  0
175176  4  0  0  0  0
176177  2  0  0  0  0
142178  4  0  0  0  0
177178  4  0  0  0  0
141179  1  0  0  0  0
175179  4  0  0  0  0
178179  4  0  0  0  0
144180  1  0  0  0  0
145181  1  0  0  0  0
150182  1  0  0  0  0
151183  1  0  0  0  0
153184  1  0  0  0  0
154185  1  0  0  0  0
155186  1  0  0  0  0
157187  1  0  0  0  0
158188  1  0  0  0  0
163189  1  0  0  0  0
164190  1  0  0  0  0
169191  1  0  0  0  0
170192  1  0  0  0  0
172193  1  0  0  0  0
173194  1  0  0  0  0
174195  1  0  0  0  0
176196  1  0  0  0  0
177197  1  0  0  0  0
132199  4  0  0  0  0
199200  4  0  0  0  0
200201  4  0  0  0  0
201202  2  0  0  0  0
202203  4  0  0  0  0
198204  1  0  0  0  0
200204  4  0  0  0  0
203204  4  0  0  0  0
203205  4  0  0  0  0
205206  1  0  0  0  0
206207  4  0  0  0  0
207208  4  0  0  0  0
208209  4  0  0  0  0
209210  1  0  0  0  0
209211  4  0  0  0  0
206212  4  0  0  0  0
211212  4  0  0  0  0
205213  4  0  0  0  0
213214  4  0  0  0  0
214215  2  0  0  0  0
198216  1  0  0  0  0
213216  4  0  0  0  0
215217  4  0  0  0  0
216217  4  0  0  0  0
133218  4  0  0  0  0
217218  4  0  0  0  0
218219  4  0  0  0  0
219220  4  0  0  0  0
220221  2  0  0  0  0
221222  4  0  0  0  0
198223  1  0  0  0  0
219223  4  0  0  0  0
222223  4  0  0  0  0
222224  4  0  0  0  0
224225  1  0  0  0  0
225226  4  0  0  0  0
226227  4  0  0  0  0
227228  4  0  0  0  0
228229  1  0  0  0  0
228230  4  0  0  0  0
225231  4  0  0  0  0
230231  4  0  0  0  0
224232  4  0  0  0  0
232233  4  0  0  0  0
233234  2  0  0  0  0
199235  4  0  0  0  0
234235  4  0  0  0  0
198236  1  0  0  0  0
232236  4  0  0  0  0
235236  4  0  0  0  0
201237  1  0  0  0  0
202238  1  0  0  0  0
207239  1  0  0  0  0
208240  1  0  0  0  0
210241  1  0  0  0  0
211242  1  0  0  0  0
212243  1  0  0  0  0
214244  1  0  0  0  0
215245  1  0  0  0  0
220246  1  0  0  0  0
221247  1  0  0  0  0
226248  1  0  0  0  0
227249  1  0  0  0  0
229250  1  0  0  0  0
230251  1  0  0  0  0
231252  1  0  0  0  0
233253  1  0  0  0  0
234254  1  0  0  0  0
M  END
