254

Zn 38.249518 0.026589 -0.028305
C 34.919233 -0.124142 -0.178102
C 35.585355 -1.281204 -0.144924
C 34.936265 -2.586491 -0.133587
C 35.876000 -3.506811 -0.030361
C 37.180575 -2.831667 0.022354
N 37.002788 -1.416646 -0.053374
C 38.369263 -3.452069 0.170072
C 38.404237 -4.927143 0.283072
C 38.211619 -5.728285 -0.852960
C 38.237375 -7.121607 -0.742252
C 38.460133 -7.724573 0.503628
O 38.485929 -9.111639 0.626267
C 38.657434 -6.927033 1.636296
C 38.628241 -5.533420 1.528591
C 39.664688 -2.723438 0.233208
C 40.958678 -3.378926 0.460239
C 41.893799 -2.452661 0.417013
N 39.804183 -1.445033 0.050652
C 41.206666 -1.194036 0.154623
C 41.803430 -0.003103 -0.024436
C 41.048243 1.242224 -0.301463
C 41.604763 2.369254 -0.726032
C 40.560407 3.371430 -0.789056
C 39.432272 2.793104 -0.396968
N 39.648835 1.418090 -0.071507
C 38.134623 3.504477 -0.263517
C 38.143880 4.985934 -0.213356
C 38.758881 5.647988 0.861175
C 38.776662 7.044643 0.910735
C 38.189515 7.791296 -0.114848
O 38.209155 9.182028 -0.048480
C 37.588473 7.134336 -1.198592
C 37.567000 5.737925 -1.248599
C 36.966014 2.841403 -0.177454
C 35.643483 3.443145 -0.015902
C 34.783926 2.443327 -0.004428
C 35.547747 1.205455 -0.144834
N 36.821097 1.424474 -0.247133
H 33.836074 -0.156592 -0.204480
H 33.872871 -2.782742 -0.182730
H 35.688072 -4.571643 0.017309
H 38.038522 -5.272778 -1.820489
H 38.083835 -7.731124 -1.623785
H 38.340072 -9.716479 -0.174201
H 38.831462 -7.387968 2.600690
H 38.780260 -4.926828 2.413113
H 41.139178 -4.432822 0.627153
H 42.954480 -2.627012 0.542591
H 42.647779 2.530088 -0.962151
H 40.687402 4.404194 -1.085098
H 39.215030 5.081797 1.663180
H 39.242411 7.547263 1.749883
H 37.785802 9.751439 -0.772857
H 37.139565 7.704663 -2.001529
H 37.104034 5.241747 -2.093944
H 35.390989 4.490674 0.081142
H 33.710950 2.536949 0.101467
Zn 95.513280 -0.033043 -0.024005
C 98.843565 0.094636 -0.193878
C 98.177443 1.244488 -0.327053
C 98.826533 2.537897 -0.503108
C 97.886798 3.463505 -0.532993
C 96.582223 2.802910 -0.383957
N 96.760010 1.391663 -0.255882
C 95.393535 3.438087 -0.326779
C 95.358560 4.914112 -0.426584
C 95.551179 5.543974 -1.665806
C 95.525423 6.938765 -1.756150
C 95.302665 7.714244 -0.609670
O 95.276869 9.104555 -0.687308
C 95.105364 7.087465 0.625706
C 95.134557 5.692817 0.719063
C 94.098110 2.726053 -0.159756
C 92.804120 3.407332 -0.029121
C 91.868999 2.484449 0.060997
N 93.958615 1.434682 -0.157005
C 92.556132 1.201199 -0.018098
C 91.959368 -0.003103 -0.024436
C 92.714555 -1.275292 -0.119924
C 92.158035 -2.451577 -0.378401
C 93.202391 -3.452426 -0.296985
C 94.330526 -2.823830 0.008071
N 94.113963 -1.416345 0.132885
C 95.628175 -3.508696 0.242205
C 95.618918 -4.967628 0.504399
C 95.003917 -5.468665 1.662800
C 94.986135 -6.843760 1.912232
C 95.573283 -7.729834 1.004386
O 95.553643 -9.096655 1.269601
C 96.174325 -7.235160 -0.162404
C 96.195798 -5.860371 -0.412242
C 96.796783 -2.840134 0.232243
C 98.119314 -3.412472 0.478459
C 98.978872 -2.421352 0.346366
C 98.215050 -1.216432 0.029809
N 96.941701 -1.447861 -0.040008
H 99.926724 0.122966 -0.224639
H 99.889927 2.725066 -0.579900
H 98.074726 4.524160 -0.638592
H 95.724276 4.954363 -2.557972
H 95.678963 7.415498 -2.716013
H 95.422725 9.588291 -1.566274
H 94.931336 7.681997 1.513990
H 94.982537 5.219407 1.681465
H 92.623619 4.474272 -0.015141
H 90.808318 2.675013 0.160261
H 91.115019 -2.644624 -0.589001
H 93.075396 -4.516980 -0.441789
H 94.547768 -4.793265 2.375274
H 94.520387 -7.220784 2.814811
H 95.976995 -9.764104 0.634415
H 96.623233 -7.914787 -0.875205
H 96.658764 -5.490612 -1.320031
H 98.371809 -4.435240 0.724792
H 100.051848 -2.498812 0.464598
C 44.249006 0.011123 -0.014485
C 45.707232 -0.010714 -0.032358
C 46.841161 -0.031468 -0.033849
C 48.202542 -0.044057 -0.036040
C 49.476761 -0.033751 -0.040805
C 50.665224 -0.014953 -0.046961
C 52.017584 0.009832 -0.031094
C 53.117852 0.011123 -0.014485
C 62.386919 0.011123 -0.014485
C 63.845145 -0.010714 -0.032358
C 64.979073 -0.031468 -0.033849
C 66.340455 -0.044057 -0.036040
C 67.614674 -0.033751 -0.040805
C 68.803136 -0.014953 -0.046961
C 70.155497 0.009832 -0.031094
C 71.255764 0.011123 -0.014485
C 80.524832 0.011123 -0.014485
C 81.983058 -0.010714 -0.032358
C 83.116986 -0.031468 -0.033849
C 84.478368 -0.044057 -0.036040
C 85.752587 -0.033751 -0.040805
C 86.941049 -0.014953 -0.046961
C 88.293410 0.009832 -0.031094
C 89.393677 0.011123 -0.014485
Zn 57.786294 0.019859 -0.045990
C 54.364699 0.000816 0.027914
C 55.021640 0.981194 0.675536
C 54.382222 2.035417 1.466020
C 55.321962 2.841812 1.919210
C 56.618798 2.352159 1.444558
N 56.438727 1.170954 0.659659
C 57.803421 2.947659 1.692208
C 57.834194 4.205993 2.466823
C 58.136494 4.181832 3.839940
C 58.179005 5.375013 4.569046
C 57.927594 6.598002 3.930545
O 57.976621 7.779628 4.667532
C 57.628898 6.623451 2.557238
C 57.582156 5.431580 1.827715
C 59.102152 2.407463 1.220761
C 60.372172 3.138021 1.315101
C 61.325685 2.348982 0.862693
N 59.269836 1.217762 0.731550
C 60.670283 1.105431 0.477221
C 61.286389 0.000816 0.027914
C 60.537000 -1.214065 -0.360049
C 61.076134 -2.420486 -0.485251
C 60.042604 -3.300663 -0.995842
C 58.943383 -2.570334 -1.151102
N 59.165179 -1.217929 -0.754531
C 57.685150 -3.065954 -1.761365
C 57.747992 -4.262759 -2.635656
C 57.070870 -5.443440 -2.281547
C 57.137001 -6.568131 -3.110768
C 57.880564 -6.524085 -4.298904
O 57.949484 -7.635922 -5.135229
C 58.561624 -5.352904 -4.649471
C 58.500601 -4.227801 -3.820248
C 56.509907 -2.435236 -1.567656
C 55.233059 -2.789932 -2.182389
C 54.344794 -1.948483 -1.694081
C 55.042523 -1.048113 -0.768139
N 56.308577 -1.324747 -0.692041
H 53.326027 2.161001 1.661312
H 55.139905 3.712202 2.537394
H 58.335686 3.241277 4.343271
H 58.409320 5.350015 5.629466
H 57.789076 8.681068 4.231348
H 57.435497 7.564990 2.054786
H 57.354849 5.461833 0.767001
H 60.521018 4.143546 1.688401
H 62.376479 2.601364 0.805564
H 62.102967 -2.695274 -0.281286
H 60.160592 -4.347901 -1.243150
H 56.494686 -5.490290 -1.364707
H 56.609481 -7.471730 -2.829748
H 57.482315 -8.504333 -4.899478
H 59.138901 -5.314379 -5.564775
H 59.031177 -3.327164 -4.105377
H 55.029236 -3.571542 -2.903770
H 53.294207 -1.937596 -1.954262
Zn 75.924206 0.019859 -0.045990
C 72.502612 0.000816 0.027914
C 73.159553 0.981194 0.675536
C 72.520135 2.035417 1.466020
C 73.459874 2.841812 1.919210
C 74.756711 2.352159 1.444558
N 74.576640 1.170954 0.659659
C 75.941334 2.947659 1.692208
C 75.972106 4.205993 2.466823
C 76.274407 4.181832 3.839940
C 76.316918 5.375013 4.569046
C 76.065507 6.598002 3.930545
O 76.114534 7.779628 4.667532
C 75.766811 6.623451 2.557238
C 75.720069 5.431580 1.827715
C 77.240065 2.407463 1.220761
C 78.510085 3.138021 1.315101
C 79.463597 2.348982 0.862693
N 77.407749 1.217762 0.731550
C 78.808196 1.105431 0.477221
C 79.424302 0.000816 0.027914
C 78.674913 -1.214065 -0.360049
C 79.214047 -2.420486 -0.485251
C 78.180517 -3.300663 -0.995842
C 77.081295 -2.570334 -1.151102
N 77.303091 -1.217929 -0.754531
C 75.823062 -3.065954 -1.761365
C 75.885905 -4.262759 -2.635656
C 75.208782 -5.443440 -2.281547
C 75.274914 -6.568131 -3.110768
C 76.018477 -6.524085 -4.298904
O 76.087397 -7.635922 -5.135229
C 76.699536 -5.352904 -4.649471
C 76.638514 -4.227801 -3.820248
C 74.647820 -2.435236 -1.567656
C 73.370972 -2.789932 -2.182389
C 72.482706 -1.948483 -1.694081
C 73.180436 -1.048113 -0.768139
N 74.446490 -1.324747 -0.692041
H 71.463940 2.161001 1.661312
H 73.277817 3.712202 2.537394
H 76.473599 3.241277 4.343271
H 76.547233 5.350015 5.629466
H 75.926989 8.681068 4.231348
H 75.573410 7.564990 2.054786
H 75.492762 5.461833 0.767001
H 78.658931 4.143546 1.688401
H 80.514392 2.601364 0.805564
H 80.240879 -2.695274 -0.281286
H 78.298505 -4.347901 -1.243150
H 74.632598 -5.490290 -1.364707
H 74.747393 -7.471730 -2.829748
H 75.620227 -8.504333 -4.899478
H 77.276814 -5.314379 -5.564775
H 77.169090 -3.327164 -4.105377
H 73.167148 -3.571542 -2.903770
H 71.432120 -1.937596 -1.954262
