458

C 83.295483 0.046037 0.003873
C 84.020337 -1.007897 0.895156
C 83.404886 -1.995073 1.631241
C 84.426313 -2.699211 2.319035
C 85.631990 -2.111760 1.985587
N 85.375010 -1.108246 1.085703
C 87.060044 -2.497121 2.555855
C 87.109545 -3.444409 3.694610
C 87.358932 -4.802807 3.476268
C 87.411539 -5.693399 4.552704
C 87.256986 -5.233096 5.863195
N 87.218328 -6.144315 6.933263
C 86.933399 -3.888564 6.072054
C 86.882029 -2.994245 4.998529
C 88.188693 -1.940100 2.038216
C 89.497988 -2.220480 2.590957
C 90.399515 -1.524122 1.908799
N 88.381732 -1.062476 1.002847
C 89.715898 -0.772584 0.874636
C 90.385803 0.032376 0.006800
C 89.611271 0.812409 -1.139742
C 90.165651 1.305570 -2.304609
C 89.140596 1.973018 -3.018772
C 87.983897 1.857067 -2.278659
N 88.270134 1.111544 -1.158668
C 86.566848 2.459911 -2.658321
C 86.517067 3.541674 -3.666623
C 86.297251 3.241765 -5.014719
C 86.248178 4.264234 -5.966565
C 86.371316 5.601360 -5.579216
N 86.411120 6.617504 -6.550150
C 86.661304 5.892246 -4.242389
C 86.713132 4.872254 -3.287047
C 85.444679 1.984941 -2.057677
C 84.119410 2.497400 -2.358533
C 83.235832 1.826648 -1.625750
C 83.961058 0.867416 -0.829586
N 85.283518 1.007829 -1.114810
H 82.216481 0.111714 0.073136
H 82.342224 -2.179225 1.678458
H 84.294294 -3.528145 2.999221
H 86.078780 -0.530361 0.632744
H 87.506759 -5.155935 2.459010
H 87.585231 -6.745288 4.351036
H 87.446801 -5.701877 7.817816
H 87.784027 -6.967834 6.753597
H 86.727239 -3.515363 7.069992
H 86.657529 -1.942635 5.164767
H 89.714051 -2.868755 3.421029
H 91.455714 -1.537419 2.105073
H 91.197114 1.209434 -2.606462
H 89.236976 2.483512 -3.965015
H 87.581411 0.794828 -0.481137
H 86.171717 2.203264 -5.311591
H 86.103882 3.999614 -7.008515
H 85.863913 6.380942 -7.370542
H 86.160382 7.521504 -6.164058
H 86.840944 6.913922 -3.923671
H 86.911234 5.101775 -2.242249
H 83.887772 3.283849 -3.053843
H 82.170814 1.970131 -1.621515
C 186.950841 0.032656 0.020767
C 186.225987 0.658834 -1.209300
C 186.841438 1.149230 -2.338835
C 185.820011 1.657450 -3.181795
C 184.614334 1.467427 -2.533584
N 184.871314 0.821329 -1.350626
C 183.186281 1.934264 -3.039323
C 183.136779 2.825762 -4.222264
C 182.887392 2.302076 -5.494534
C 182.834786 3.145897 -6.608012
C 182.989338 4.526982 -6.460123
N 183.027996 5.359880 -7.592221
C 183.312925 5.038261 -5.199178
C 183.364295 4.198126 -4.082739
C 182.057631 1.557976 -2.378543
C 180.748336 2.031799 -2.778078
C 179.846809 1.527283 -1.943981
N 181.864592 0.751159 -1.287094
C 180.530427 0.692759 -0.975542
C 179.860521 0.032376 0.006800
C 180.635053 -0.905011 1.028716
C 180.080673 -1.925947 1.775585
C 181.105728 -2.468240 2.588871
C 182.262427 -1.774363 2.306475
N 181.976191 -0.854916 1.324233
C 183.679476 -2.005847 2.980256
C 183.729257 -2.739557 4.264215
C 183.949073 -4.120507 4.281069
C 183.998146 -4.812844 5.494380
C 183.875008 -4.129516 6.707232
N 183.835204 -4.841883 7.918759
C 183.585020 -2.761602 6.684176
C 183.533192 -2.065296 5.472476
C 184.801645 -1.529967 2.380332
C 186.126914 -1.705442 2.948080
C 187.010492 -1.145781 2.127313
C 186.285267 -0.590502 1.011217
N 184.962806 -0.835980 1.213230
H 188.029843 0.115122 0.068833
H 187.904100 1.153011 -2.528906
H 185.952030 2.129681 -4.144491
H 184.167544 0.512781 -0.684353
H 182.739565 1.230977 -5.605264
H 182.661093 2.708650 -7.585741
H 182.799523 6.322259 -7.364158
H 182.462297 4.996358 -8.352692
H 183.519085 6.095151 -5.064483
H 183.588795 4.600822 -3.097165
H 180.532273 2.691311 -3.599250
H 178.790610 1.715293 -2.001882
H 179.049211 -2.241795 1.751146
H 181.009349 -3.272394 3.302535
H 182.664913 -0.267944 0.860745
H 184.074607 -4.647361 3.338179
H 184.142443 -5.887705 5.475461
H 184.382411 -5.694649 7.876401
H 184.085942 -4.258989 8.710287
H 183.405380 -2.217337 7.605685
H 183.335091 -0.995701 5.456578
H 186.358552 -2.202124 3.872884
H 188.075510 -1.108793 2.266011
C 96.464842 0.033479 0.015289
C 95.255902 0.020024 0.006842
C 93.834373 0.028843 -0.005141
C 92.622704 0.036282 0.005722
C 97.881446 0.026804 0.015823
C 99.102142 0.036282 0.005722
C 112.169707 0.033479 0.015289
C 110.960768 0.020024 0.006842
C 109.539239 0.028843 -0.005141
C 108.327570 0.036282 0.005722
C 113.586312 0.026804 0.015823
C 114.807008 0.036282 0.005722
C 127.874573 0.033479 0.015289
C 126.665634 0.020024 0.006842
C 125.244105 0.028843 -0.005141
C 124.032435 0.036282 0.005722
C 129.291177 0.026804 0.015823
C 130.511873 0.036282 0.005722
C 143.579439 0.033479 0.015289
C 142.370499 0.020024 0.006842
C 140.948971 0.028843 -0.005141
C 139.737301 0.036282 0.005722
C 144.996043 0.026804 0.015823
C 146.216739 0.036282 0.005722
C 159.284305 0.033479 0.015289
C 158.075365 0.020024 0.006842
C 156.653836 0.028843 -0.005141
C 155.442167 0.036282 0.005722
C 160.700909 0.026804 0.015823
C 161.921605 0.036282 0.005722
C 174.989170 0.033479 0.015289
C 173.780231 0.020024 0.006842
C 172.358702 0.028843 -0.005141
C 171.147032 0.036282 0.005722
C 176.405775 0.026804 0.015823
C 177.626470 0.036282 0.005722
C 100.137197 -0.017520 -0.003452
C 100.929842 -0.603678 1.237179
C 100.421349 -1.414112 2.232010
C 101.457963 -1.626625 3.176583
C 102.568982 -0.945748 2.725114
N 102.259135 -0.390599 1.508756
C 103.958708 -0.814584 3.472895
C 103.952849 -0.907237 4.951571
C 104.412417 -2.061116 5.595340
C 104.403740 -2.143198 6.991074
C 103.974126 -1.060549 7.763575
N 103.880617 -1.181518 9.160914
C 103.444640 0.060093 7.117266
C 103.452898 0.146818 5.721558
C 105.093435 -0.577292 2.762879
C 106.380407 -0.388092 3.400245
C 107.288082 -0.169147 2.455080
N 105.301400 -0.449237 1.417216
C 106.625775 -0.207389 1.166793
C 107.289881 -0.017520 -0.003452
C 106.497223 -0.067162 -1.374648
C 107.005529 -0.420310 -2.608328
C 105.968934 -0.243129 -3.560189
C 104.858110 0.205220 -2.876926
N 105.168061 0.236200 -1.540264
C 103.468416 0.620612 -3.512378
C 103.474097 1.117932 -4.907965
C 103.971721 2.391001 -5.200333
C 103.979581 2.861011 -6.517383
C 103.452050 2.084451 -7.553052
N 103.545317 2.523745 -8.885066
C 103.024789 0.784243 -7.269555
C 103.016430 0.310002 -5.954313
C 102.333713 0.558863 -2.766289
C 101.046723 0.983773 -3.277584
C 100.139024 0.812349 -2.322679
C 100.801335 0.269496 -1.153713
N 102.125763 0.146207 -1.479077
H 99.411885 -1.792251 2.287067
H 101.395636 -2.193787 4.093306
H 102.921117 0.067729 0.889222
H 104.772957 -2.893788 4.995373
H 104.745306 -3.059194 7.461487
H 104.573041 -1.821296 9.535402
H 103.895046 -0.278456 9.623023
H 103.027206 0.883522 7.687293
H 103.063725 1.031189 5.222054
H 106.575846 -0.408410 4.457390
H 108.332322 0.008592 2.636130
H 108.014863 -0.746610 -2.807932
H 106.031113 -0.403363 -4.626200
H 104.506164 0.413617 -0.790244
H 104.359315 3.007906 -4.392692
H 104.395174 3.843193 -6.716886
H 102.854207 2.081564 -9.481636
H 103.528681 3.535783 -8.954238
H 102.684791 0.126889 -8.062834
H 102.657644 -0.692315 -5.730902
H 100.851309 1.381655 -4.257222
H 99.094752 1.046840 -2.419115
C 115.842062 -0.017520 -0.003452
C 116.634707 -0.603678 1.237179
C 116.126215 -1.414112 2.232010
C 117.162829 -1.626625 3.176583
C 118.273848 -0.945748 2.725114
N 117.964001 -0.390599 1.508756
C 119.663573 -0.814584 3.472895
C 119.657715 -0.907237 4.951571
C 120.117282 -2.061116 5.595340
C 120.108606 -2.143198 6.991074
C 119.678992 -1.060549 7.763575
N 119.585483 -1.181518 9.160914
C 119.149505 0.060093 7.117266
C 119.157764 0.146818 5.721558
C 120.798301 -0.577292 2.762879
C 122.085272 -0.388092 3.400245
C 122.992948 -0.169147 2.455080
N 121.006266 -0.449237 1.417216
C 122.330641 -0.207389 1.166793
C 122.994747 -0.017520 -0.003452
C 122.202089 -0.067162 -1.374648
C 122.710394 -0.420310 -2.608328
C 121.673800 -0.243129 -3.560189
C 120.562976 0.205220 -2.876926
N 120.872927 0.236200 -1.540264
C 119.173282 0.620612 -3.512378
C 119.178963 1.117932 -4.907965
C 119.676587 2.391001 -5.200333
C 119.684447 2.861011 -6.517383
C 119.156916 2.084451 -7.553052
N 119.250183 2.523745 -8.885066
C 118.729655 0.784243 -7.269555
C 118.721296 0.310002 -5.954313
C 118.038579 0.558863 -2.766289
C 116.751588 0.983773 -3.277584
C 115.843890 0.812349 -2.322679
C 116.506201 0.269496 -1.153713
N 117.830629 0.146207 -1.479077
H 115.116750 -1.792251 2.287067
H 117.100502 -2.193787 4.093306
H 118.625983 0.067729 0.889222
H 120.477823 -2.893788 4.995373
H 120.450172 -3.059194 7.461487
H 120.277907 -1.821296 9.535402
H 119.599911 -0.278456 9.623023
H 118.732071 0.883522 7.687293
H 118.768590 1.031189 5.222054
H 122.280712 -0.408410 4.457390
H 124.037187 0.008592 2.636130
H 123.719728 -0.746610 -2.807932
H 121.735979 -0.403363 -4.626200
H 120.211030 0.413617 -0.790244
H 120.064181 3.007906 -4.392692
H 120.100040 3.843193 -6.716886
H 118.559072 2.081564 -9.481636
H 119.233547 3.535783 -8.954238
H 118.389657 0.126889 -8.062834
H 118.362510 -0.692315 -5.730902
H 116.556175 1.381655 -4.257222
H 114.799618 1.046840 -2.419115
C 131.546928 -0.017520 -0.003452
C 132.339573 -0.603678 1.237179
C 131.831080 -1.414112 2.232010
C 132.867694 -1.626625 3.176583
C 133.978714 -0.945748 2.725114
N 133.668867 -0.390599 1.508756
C 135.368439 -0.814584 3.472895
C 135.362580 -0.907237 4.951571
C 135.822148 -2.061116 5.595340
C 135.813471 -2.143198 6.991074
C 135.383858 -1.060549 7.763575
N 135.290349 -1.181518 9.160914
C 134.854371 0.060093 7.117266
C 134.862630 0.146818 5.721558
C 136.503166 -0.577292 2.762879
C 137.790138 -0.388092 3.400245
C 138.697814 -0.169147 2.455080
N 136.711131 -0.449237 1.417216
C 138.035507 -0.207389 1.166793
C 138.699612 -0.017520 -0.003452
C 137.906955 -0.067162 -1.374648
C 138.415260 -0.420310 -2.608328
C 137.378665 -0.243129 -3.560189
C 136.267842 0.205220 -2.876926
N 136.577793 0.236200 -1.540264
C 134.878147 0.620612 -3.512378
C 134.883829 1.117932 -4.907965
C 135.381452 2.391001 -5.200333
C 135.389312 2.861011 -6.517383
C 134.861781 2.084451 -7.553052
N 134.955048 2.523745 -8.885066
C 134.434521 0.784243 -7.269555
C 134.426162 0.310002 -5.954313
C 133.743445 0.558863 -2.766289
C 132.456454 0.983773 -3.277584
C 131.548755 0.812349 -2.322679
C 132.211066 0.269496 -1.153713
N 133.535494 0.146207 -1.479077
H 130.821616 -1.792251 2.287067
H 132.805367 -2.193787 4.093306
H 134.330849 0.067729 0.889222
H 136.182689 -2.893788 4.995373
H 136.155038 -3.059194 7.461487
H 135.982773 -1.821296 9.535402
H 135.304777 -0.278456 9.623023
H 134.436937 0.883522 7.687293
H 134.473456 1.031189 5.222054
H 137.985578 -0.408410 4.457390
H 139.742053 0.008592 2.636130
H 139.424594 -0.746610 -2.807932
H 137.440845 -0.403363 -4.626200
H 135.915896 0.413617 -0.790244
H 135.769047 3.007906 -4.392692
H 135.804906 3.843193 -6.716886
H 134.263938 2.081564 -9.481636
H 134.938412 3.535783 -8.954238
H 134.094523 0.126889 -8.062834
H 134.067376 -0.692315 -5.730902
H 132.261040 1.381655 -4.257222
H 130.504483 1.046840 -2.419115
C 147.251794 -0.017520 -0.003452
C 148.044439 -0.603678 1.237179
C 147.535946 -1.414112 2.232010
C 148.572560 -1.626625 3.176583
C 149.683579 -0.945748 2.725114
N 149.373732 -0.390599 1.508756
C 151.073305 -0.814584 3.472895
C 151.067446 -0.907237 4.951571
C 151.527014 -2.061116 5.595340
C 151.518337 -2.143198 6.991074
C 151.088723 -1.060549 7.763575
N 150.995214 -1.181518 9.160914
C 150.559237 0.060093 7.117266
C 150.567496 0.146818 5.721558
C 152.208032 -0.577292 2.762879
C 153.495004 -0.388092 3.400245
C 154.402679 -0.169147 2.455080
N 152.415997 -0.449237 1.417216
C 153.740372 -0.207389 1.166793
C 154.404478 -0.017520 -0.003452
C 153.611820 -0.067162 -1.374648
C 154.120126 -0.420310 -2.608328
C 153.083531 -0.243129 -3.560189
C 151.972707 0.205220 -2.876926
N 152.282659 0.236200 -1.540264
C 150.583013 0.620612 -3.512378
C 150.588694 1.117932 -4.907965
C 151.086318 2.391001 -5.200333
C 151.094178 2.861011 -6.517383
C 150.566647 2.084451 -7.553052
N 150.659914 2.523745 -8.885066
C 150.139387 0.784243 -7.269555
C 150.131028 0.310002 -5.954313
C 149.448310 0.558863 -2.766289
C 148.161320 0.983773 -3.277584
C 147.253621 0.812349 -2.322679
C 147.915932 0.269496 -1.153713
N 149.240360 0.146207 -1.479077
H 146.526482 -1.792251 2.287067
H 148.510233 -2.193787 4.093306
H 150.035715 0.067729 0.889222
H 151.887555 -2.893788 4.995373
H 151.859904 -3.059194 7.461487
H 151.687638 -1.821296 9.535402
H 151.009643 -0.278456 9.623023
H 150.141803 0.883522 7.687293
H 150.178322 1.031189 5.222054
H 153.690444 -0.408410 4.457390
H 155.446919 0.008592 2.636130
H 155.129460 -0.746610 -2.807932
H 153.145710 -0.403363 -4.626200
H 151.620762 0.413617 -0.790244
H 151.473912 3.007906 -4.392692
H 151.509772 3.843193 -6.716886
H 149.968804 2.081564 -9.481636
H 150.643278 3.535783 -8.954238
H 149.799388 0.126889 -8.062834
H 149.772241 -0.692315 -5.730902
H 147.965906 1.381655 -4.257222
H 146.209349 1.046840 -2.419115
C 162.956660 -0.017520 -0.003452
C 163.749304 -0.603678 1.237179
C 163.240812 -1.414112 2.232010
C 164.277426 -1.626625 3.176583
C 165.388445 -0.945748 2.725114
N 165.078598 -0.390599 1.508756
C 166.778171 -0.814584 3.472895
C 166.772312 -0.907237 4.951571
C 167.231879 -2.061116 5.595340
C 167.223203 -2.143198 6.991074
C 166.793589 -1.060549 7.763575
N 166.700080 -1.181518 9.160914
C 166.264103 0.060093 7.117266
C 166.272361 0.146818 5.721558
C 167.912898 -0.577292 2.762879
C 169.199870 -0.388092 3.400245
C 170.107545 -0.169147 2.455080
N 168.120863 -0.449237 1.417216
C 169.445238 -0.207389 1.166793
C 170.109344 -0.017520 -0.003452
C 169.316686 -0.067162 -1.374648
C 169.824992 -0.420310 -2.608328
C 168.788397 -0.243129 -3.560189
C 167.677573 0.205220 -2.876926
N 167.987524 0.236200 -1.540264
C 166.287879 0.620612 -3.512378
C 166.293560 1.117932 -4.907965
C 166.791184 2.391001 -5.200333
C 166.799044 2.861011 -6.517383
C 166.271513 2.084451 -7.553052
N 166.364780 2.523745 -8.885066
C 165.844252 0.784243 -7.269555
C 165.835893 0.310002 -5.954313
C 165.153176 0.558863 -2.766289
C 163.866186 0.983773 -3.277584
C 162.958487 0.812349 -2.322679
C 163.620798 0.269496 -1.153713
N 164.945226 0.146207 -1.479077
H 162.231348 -1.792251 2.287067
H 164.215099 -2.193787 4.093306
H 165.740580 0.067729 0.889222
H 167.592420 -2.893788 4.995373
H 167.564769 -3.059194 7.461487
H 167.392504 -1.821296 9.535402
H 166.714509 -0.278456 9.623023
H 165.846669 0.883522 7.687293
H 165.883188 1.031189 5.222054
H 169.395309 -0.408410 4.457390
H 171.151784 0.008592 2.636130
H 170.834326 -0.746610 -2.807932
H 168.850576 -0.403363 -4.626200
H 167.325627 0.413617 -0.790244
H 167.178778 3.007906 -4.392692
H 167.214637 3.843193 -6.716886
H 165.673669 2.081564 -9.481636
H 166.348144 3.535783 -8.954238
H 165.504254 0.126889 -8.062834
H 165.477107 -0.692315 -5.730902
H 163.670772 1.381655 -4.257222
H 161.914215 1.046840 -2.419115
