 xtb: 6.5.1 (b24c23e)
          07302201333D

175204  0     0  0            999 V2000
   28.9243   -0.0159    0.0121 Co  0  0  0  0  0  0  0  0  0  0  0  0
   25.5506   -0.0388    0.0217 C   0  0  0  0  0  0  0  0  0  0  0  0
   26.2119   -1.2008   -0.3138 C   0  0  0  0  0  0  0  0  0  0  0  0
   25.5505   -2.4221   -0.6598 C   0  0  0  0  0  0  0  0  0  0  0  0
   26.5083   -3.3762   -0.7277 C   0  0  0  0  0  0  0  0  0  0  0  0
   27.7550   -2.7353   -0.4255 C   0  0  0  0  0  0  0  0  0  0  0  0
   27.5676   -1.3922   -0.2210 N   0  0  0  0  0  0  0  0  0  0  0  0
   28.9417   -3.4175   -0.1918 C   0  0  0  0  0  0  0  0  0  0  0  0
   30.1180   -2.7583    0.1277 C   0  0  0  0  0  0  0  0  0  0  0  0
   31.3657   -3.4184    0.3702 C   0  0  0  0  0  0  0  0  0  0  0  0
   32.3135   -2.4528    0.4345 C   0  0  0  0  0  0  0  0  0  0  0  0
   30.2982   -1.3936    0.0861 N   0  0  0  0  0  0  0  0  0  0  0  0
   31.6443   -1.2079    0.2242 C   0  0  0  0  0  0  0  0  0  0  0  0
   32.3168    0.0021    0.0297 C   0  0  0  0  0  0  0  0  0  0  0  0
   31.6319    1.2038   -0.1732 C   0  0  0  0  0  0  0  0  0  0  0  0
   32.2837    2.4503   -0.4231 C   0  0  0  0  0  0  0  0  0  0  0  0
   31.3231    3.4051   -0.3837 C   0  0  0  0  0  0  0  0  0  0  0  0
   30.0891    2.7376   -0.0969 C   0  0  0  0  0  0  0  0  0  0  0  0
   28.9000    3.3894    0.1917 C   0  0  0  0  0  0  0  0  0  0  0  0
   28.8873    4.8687    0.2647 C   0  0  0  0  0  0  0  0  0  0  0  0
   28.0676    5.6119   -0.5859 C   0  0  0  0  0  0  0  0  0  0  0  0
   28.0581    6.9968   -0.5164 C   0  0  0  0  0  0  0  0  0  0  0  0
   28.8602    7.6553    0.4058 C   0  0  0  0  0  0  0  0  0  0  0  0
   29.6761    6.9228    1.2574 C   0  0  0  0  0  0  0  0  0  0  0  0
   29.6935    5.5380    1.1866 C   0  0  0  0  0  0  0  0  0  0  0  0
   27.7190    2.6928    0.4157 C   0  0  0  0  0  0  0  0  0  0  0  0
   26.4743    3.3098    0.7696 C   0  0  0  0  0  0  0  0  0  0  0  0
   25.5291    2.3417    0.7180 C   0  0  0  0  0  0  0  0  0  0  0  0
   26.1994    1.1339    0.3438 C   0  0  0  0  0  0  0  0  0  0  0  0
   27.5497    1.3464    0.2209 N   0  0  0  0  0  0  0  0  0  0  0  0
   30.2843    1.3761   -0.0340 N   0  0  0  0  0  0  0  0  0  0  0  0
   28.9462   -4.8986   -0.2804 C   0  0  0  0  0  0  0  0  0  0  0  0
   28.7506   -5.5309   -1.5081 C   0  0  0  0  0  0  0  0  0  0  0  0
   28.7544   -6.9154   -1.5902 C   0  0  0  0  0  0  0  0  0  0  0  0
   28.9479   -7.6818   -0.4490 C   0  0  0  0  0  0  0  0  0  0  0  0
   29.1408   -7.0585    0.7763 C   0  0  0  0  0  0  0  0  0  0  0  0
   29.1428   -5.6741    0.8621 C   0  0  0  0  0  0  0  0  0  0  0  0
   24.4671   -0.0480    0.0334 H   0  0  0  0  0  0  0  0  0  0  0  0
   24.4868   -2.5196   -0.8086 H   0  0  0  0  0  0  0  0  0  0  0  0
   26.3928   -4.4268   -0.9390 H   0  0  0  0  0  0  0  0  0  0  0  0
   31.4913   -4.4854    0.4562 H   0  0  0  0  0  0  0  0  0  0  0  0
   33.3753   -2.5584    0.5887 H   0  0  0  0  0  0  0  0  0  0  0  0
   33.3416    2.5638   -0.5974 H   0  0  0  0  0  0  0  0  0  0  0  0
   31.4292    4.4674   -0.5317 H   0  0  0  0  0  0  0  0  0  0  0  0
   27.4495    5.0997   -1.3148 H   0  0  0  0  0  0  0  0  0  0  0  0
   27.4217    7.5647   -1.1861 H   0  0  0  0  0  0  0  0  0  0  0  0
   28.8493    8.7379    0.4609 H   0  0  0  0  0  0  0  0  0  0  0  0
   30.3019    7.4322    1.9817 H   0  0  0  0  0  0  0  0  0  0  0  0
   30.3220    4.9668    1.8608 H   0  0  0  0  0  0  0  0  0  0  0  0
   26.3535    4.3512    1.0205 H   0  0  0  0  0  0  0  0  0  0  0  0
   24.4699    2.4198    0.9053 H   0  0  0  0  0  0  0  0  0  0  0  0
   28.6094   -4.9327   -2.4013 H   0  0  0  0  0  0  0  0  0  0  0  0
   28.6061   -7.3977   -2.5500 H   0  0  0  0  0  0  0  0  0  0  0  0
   28.9480   -8.7640   -0.5144 H   0  0  0  0  0  0  0  0  0  0  0  0
   29.2894   -7.6530    1.6709 H   0  0  0  0  0  0  0  0  0  0  0  0
   29.2825   -5.1881    1.8212 H   0  0  0  0  0  0  0  0  0  0  0  0
   55.6881    0.0528    0.0247 Co  0  0  0  0  0  0  0  0  0  0  0  0
   59.0616    0.0728    0.0632 C   0  0  0  0  0  0  0  0  0  0  0  0
   58.4040    1.2483   -0.2298 C   0  0  0  0  0  0  0  0  0  0  0  0
   59.0690    2.4822   -0.5195 C   0  0  0  0  0  0  0  0  0  0  0  0
   58.1119    3.4386   -0.5591 C   0  0  0  0  0  0  0  0  0  0  0  0
   56.8623    2.7867   -0.2952 C   0  0  0  0  0  0  0  0  0  0  0  0
   57.0475    1.4364   -0.1431 N   0  0  0  0  0  0  0  0  0  0  0  0
   55.6739    3.4598   -0.0440 C   0  0  0  0  0  0  0  0  0  0  0  0
   54.4957    2.7893    0.2434 C   0  0  0  0  0  0  0  0  0  0  0  0
   53.2480    3.4403    0.5096 C   0  0  0  0  0  0  0  0  0  0  0  0
   52.3000    2.4733    0.5384 C   0  0  0  0  0  0  0  0  0  0  0  0
   54.3149    1.4274    0.1492 N   0  0  0  0  0  0  0  0  0  0  0  0
   52.9687    1.2370    0.2807 C   0  0  0  0  0  0  0  0  0  0  0  0
   52.2955    0.0363    0.0374 C   0  0  0  0  0  0  0  0  0  0  0  0
   52.9798   -1.1552   -0.2207 C   0  0  0  0  0  0  0  0  0  0  0  0
   52.3277   -2.3879   -0.5308 C   0  0  0  0  0  0  0  0  0  0  0  0
   53.2882   -3.3436   -0.5393 C   0  0  0  0  0  0  0  0  0  0  0  0
   54.5223   -2.6914   -0.2191 C   0  0  0  0  0  0  0  0  0  0  0  0
   55.7096   -3.3569    0.0439 C   0  0  0  0  0  0  0  0  0  0  0  0
   55.7224   -4.8380    0.0478 C   0  0  0  0  0  0  0  0  0  0  0  0
   56.5501   -5.5409   -0.8290 C   0  0  0  0  0  0  0  0  0  0  0  0
   56.5612   -6.9275   -0.8225 C   0  0  0  0  0  0  0  0  0  0  0  0
   55.7528   -7.6281    0.0624 C   0  0  0  0  0  0  0  0  0  0  0  0
   54.9288   -6.9361    0.9395 C   0  0  0  0  0  0  0  0  0  0  0  0
   54.9098   -5.5496    0.9317 C   0  0  0  0  0  0  0  0  0  0  0  0
   56.8890   -2.6724    0.3101 C   0  0  0  0  0  0  0  0  0  0  0  0
   58.1300   -3.3059    0.6477 C   0  0  0  0  0  0  0  0  0  0  0  0
   59.0756   -2.3368    0.6516 C   0  0  0  0  0  0  0  0  0  0  0  0
   58.4093   -1.1126    0.3265 C   0  0  0  0  0  0  0  0  0  0  0  0
   57.0603   -1.3185    0.1799 N   0  0  0  0  0  0  0  0  0  0  0  0
   54.3274   -1.3343   -0.0906 N   0  0  0  0  0  0  0  0  0  0  0  0
   55.6708    4.9433   -0.0722 C   0  0  0  0  0  0  0  0  0  0  0  0
   55.8761    5.6257   -1.2712 C   0  0  0  0  0  0  0  0  0  0  0  0
   55.8728    7.0124   -1.2960 C   0  0  0  0  0  0  0  0  0  0  0  0
   55.6702    7.7311   -0.1257 C   0  0  0  0  0  0  0  0  0  0  0  0
   55.4680    7.0578    1.0713 C   0  0  0  0  0  0  0  0  0  0  0  0
   55.4655    5.6711    1.0998 C   0  0  0  0  0  0  0  0  0  0  0  0
   60.1450    0.0807    0.0861 H   0  0  0  0  0  0  0  0  0  0  0  0
   60.1342    2.5850   -0.6532 H   0  0  0  0  0  0  0  0  0  0  0  0
   58.2297    4.4969   -0.7268 H   0  0  0  0  0  0  0  0  0  0  0  0
   53.1225    4.5034    0.6352 H   0  0  0  0  0  0  0  0  0  0  0  0
   51.2383    2.5735    0.6968 H   0  0  0  0  0  0  0  0  0  0  0  0
   51.2697   -2.4924   -0.7102 H   0  0  0  0  0  0  0  0  0  0  0  0
   53.1820   -4.3973   -0.7398 H   0  0  0  0  0  0  0  0  0  0  0  0
   57.1735   -4.9954   -1.5287 H   0  0  0  0  0  0  0  0  0  0  0  0
   57.2040   -7.4635   -1.5119 H   0  0  0  0  0  0  0  0  0  0  0  0
   55.7652   -8.7122    0.0685 H   0  0  0  0  0  0  0  0  0  0  0  0
   54.2980   -7.4787    1.6350 H   0  0  0  0  0  0  0  0  0  0  0  0
   54.2754   -5.0104    1.6263 H   0  0  0  0  0  0  0  0  0  0  0  0
   58.2481   -4.3578    0.8512 H   0  0  0  0  0  0  0  0  0  0  0  0
   60.1327   -2.4239    0.8464 H   0  0  0  0  0  0  0  0  0  0  0  0
   56.0243    5.0649   -2.1873 H   0  0  0  0  0  0  0  0  0  0  0  0
   56.0286    7.5340   -2.2338 H   0  0  0  0  0  0  0  0  0  0  0  0
   55.6703    8.8150   -0.1464 H   0  0  0  0  0  0  0  0  0  0  0  0
   55.3123    7.6148    1.9886 H   0  0  0  0  0  0  0  0  0  0  0  0
   55.3187    5.1459    2.0369 H   0  0  0  0  0  0  0  0  0  0  0  0
   34.9417    0.0195    0.0293 C   0  0  0  0  0  0  0  0  0  0  0  0
   33.7186    0.0102    0.0299 C   0  0  0  0  0  0  0  0  0  0  0  0
   36.2891    0.0264    0.0286 C   0  0  0  0  0  0  0  0  0  0  0  0
   37.5125    0.0318    0.0277 C   0  0  0  0  0  0  0  0  0  0  0  0
   48.3231    0.0264    0.0502 C   0  0  0  0  0  0  0  0  0  0  0  0
   47.0996    0.0270    0.0528 C   0  0  0  0  0  0  0  0  0  0  0  0
   49.6705    0.0275    0.0467 C   0  0  0  0  0  0  0  0  0  0  0  0
   50.8937    0.0290    0.0414 C   0  0  0  0  0  0  0  0  0  0  0  0
   42.3057    0.0282    0.0755 Co  0  0  0  0  0  0  0  0  0  0  0  0
   38.9129    0.0313    0.0273 C   0  0  0  0  0  0  0  0  0  0  0  0
   39.5939   -1.1582    0.3097 C   0  0  0  0  0  0  0  0  0  0  0  0
   38.9448   -2.3853    0.6437 C   0  0  0  0  0  0  0  0  0  0  0  0
   39.9004   -3.3474    0.6241 C   0  0  0  0  0  0  0  0  0  0  0  0
   41.1272   -2.7020    0.2686 C   0  0  0  0  0  0  0  0  0  0  0  0
   40.9358   -1.3463    0.1410 N   0  0  0  0  0  0  0  0  0  0  0  0
   42.3041   -3.3690   -0.0445 C   0  0  0  0  0  0  0  0  0  0  0  0
   43.4817   -2.6887   -0.3234 C   0  0  0  0  0  0  0  0  0  0  0  0
   44.7103   -3.3199   -0.6986 C   0  0  0  0  0  0  0  0  0  0  0  0
   45.6675   -2.3600   -0.6666 C   0  0  0  0  0  0  0  0  0  0  0  0
   43.6721   -1.3381   -0.1442 N   0  0  0  0  0  0  0  0  0  0  0  0
   45.0172   -1.1473   -0.2845 C   0  0  0  0  0  0  0  0  0  0  0  0
   45.6991    0.0278    0.0499 C   0  0  0  0  0  0  0  0  0  0  0  0
   45.0160    1.2039    0.3794 C   0  0  0  0  0  0  0  0  0  0  0  0
   45.6620    2.4152    0.7716 C   0  0  0  0  0  0  0  0  0  0  0  0
   44.7058    3.3770    0.7874 C   0  0  0  0  0  0  0  0  0  0  0  0
   43.4822    2.7478    0.3940 C   0  0  0  0  0  0  0  0  0  0  0  0
   42.3078    3.4278    0.0989 C   0  0  0  0  0  0  0  0  0  0  0  0
   42.3096    4.9078    0.1264 C   0  0  0  0  0  0  0  0  0  0  0  0
   41.4478    5.6012    0.9778 C   0  0  0  0  0  0  0  0  0  0  0  0
   41.4553    6.9875    1.0046 C   0  0  0  0  0  0  0  0  0  0  0  0
   42.3160    7.6973    0.1781 C   0  0  0  0  0  0  0  0  0  0  0  0
   43.1738    7.0147   -0.6740 C   0  0  0  0  0  0  0  0  0  0  0  0
   43.1750    5.6284   -0.6984 C   0  0  0  0  0  0  0  0  0  0  0  0
   41.1329    2.7600   -0.2188 C   0  0  0  0  0  0  0  0  0  0  0  0
   39.9073    3.4061   -0.5786 C   0  0  0  0  0  0  0  0  0  0  0  0
   38.9498    2.4461   -0.5927 C   0  0  0  0  0  0  0  0  0  0  0  0
   39.5970    1.2187   -0.2550 C   0  0  0  0  0  0  0  0  0  0  0  0
   40.9409    1.4032   -0.0968 N   0  0  0  0  0  0  0  0  0  0  0  0
   43.6753    1.3990    0.2095 N   0  0  0  0  0  0  0  0  0  0  0  0
   42.3028   -4.8490   -0.0787 C   0  0  0  0  0  0  0  0  0  0  0  0
   41.4519   -5.5346   -0.9470 C   0  0  0  0  0  0  0  0  0  0  0  0
   41.4545   -6.9208   -0.9806 C   0  0  0  0  0  0  0  0  0  0  0  0
   42.2983   -7.6380   -0.1433 C   0  0  0  0  0  0  0  0  0  0  0  0
   43.1442   -6.9630    0.7264 C   0  0  0  0  0  0  0  0  0  0  0  0
   43.1511   -5.5768    0.7572 C   0  0  0  0  0  0  0  0  0  0  0  0
   37.8919   -2.4840    0.8535 H   0  0  0  0  0  0  0  0  0  0  0  0
   39.7942   -4.4003    0.8283 H   0  0  0  0  0  0  0  0  0  0  0  0
   44.8171   -4.3633   -0.9468 H   0  0  0  0  0  0  0  0  0  0  0  0
   46.7222   -2.4515   -0.8704 H   0  0  0  0  0  0  0  0  0  0  0  0
   46.7131    2.5051    0.9939 H   0  0  0  0  0  0  0  0  0  0  0  0
   44.8102    4.4199    1.0391 H   0  0  0  0  0  0  0  0  0  0  0  0
   40.7847    5.0480    1.6334 H   0  0  0  0  0  0  0  0  0  0  0  0
   40.7872    7.5160    1.6753 H   0  0  0  0  0  0  0  0  0  0  0  0
   42.3184    8.7812    0.1981 H   0  0  0  0  0  0  0  0  0  0  0  0
   43.8446    7.5646   -1.3245 H   0  0  0  0  0  0  0  0  0  0  0  0
   43.8360    5.0967   -1.3735 H   0  0  0  0  0  0  0  0  0  0  0  0
   39.8024    4.4586   -0.7857 H   0  0  0  0  0  0  0  0  0  0  0  0
   37.8969    2.5459   -0.8017 H   0  0  0  0  0  0  0  0  0  0  0  0
   40.8010   -4.9753   -1.6097 H   0  0  0  0  0  0  0  0  0  0  0  0
   40.7949   -7.4434   -1.6645 H   0  0  0  0  0  0  0  0  0  0  0  0
   42.2967   -8.7217   -0.1686 H   0  0  0  0  0  0  0  0  0  0  0  0
   43.8019   -7.5188    1.3855 H   0  0  0  0  0  0  0  0  0  0  0  0
   43.8033   -5.0510    1.4456 H   0  0  0  0  0  0  0  0  0  0  0  0
  2  3  4  0  0  0  0
  3  4  1  0  0  0  0
  4  5  2  0  0  0  0
  5  6  4  0  0  0  0
  1  7  1  0  0  0  0
  3  7  4  0  0  0  0
  6  7  4  0  0  0  0
  6  8  4  0  0  0  0
  8  9  4  0  0  0  0
  9 10  4  0  0  0  0
 10 11  2  0  0  0  0
  1 12  1  0  0  0  0
  9 12  4  0  0  0  0
 11 13  4  0  0  0  0
 12 13  4  0  0  0  0
 13 14  4  0  0  0  0
 14 15  4  0  0  0  0
 15 16  4  0  0  0  0
 16 17  2  0  0  0  0
 17 18  4  0  0  0  0
 18 19  4  0  0  0  0
 19 20  1  0  0  0  0
 20 21  4  0  0  0  0
 21 22  4  0  0  0  0
 22 23  4  0  0  0  0
 23 24  4  0  0  0  0
 20 25  4  0  0  0  0
 24 25  4  0  0  0  0
 19 26  4  0  0  0  0
 26 27  4  0  0  0  0
 27 28  2  0  0  0  0
  2 29  4  0  0  0  0
 28 29  1  0  0  0  0
  1 30  1  0  0  0  0
 26 30  4  0  0  0  0
 29 30  4  0  0  0  0
  1 31  1  0  0  0  0
 15 31  4  0  0  0  0
 18 31  4  0  0  0  0
  8 32  1  0  0  0  0
 32 33  4  0  0  0  0
 33 34  4  0  0  0  0
 34 35  4  0  0  0  0
 35 36  4  0  0  0  0
 32 37  4  0  0  0  0
 36 37  4  0  0  0  0
  2 38  1  0  0  0  0
  4 39  1  0  0  0  0
  5 40  1  0  0  0  0
 10 41  1  0  0  0  0
 11 42  1  0  0  0  0
 16 43  1  0  0  0  0
 17 44  1  0  0  0  0
 21 45  1  0  0  0  0
 22 46  1  0  0  0  0
 23 47  1  0  0  0  0
 24 48  1  0  0  0  0
 25 49  1  0  0  0  0
 27 50  1  0  0  0  0
 28 51  1  0  0  0  0
 33 52  1  0  0  0  0
 34 53  1  0  0  0  0
 35 54  1  0  0  0  0
 36 55  1  0  0  0  0
 37 56  1  0  0  0  0
 58 59  4  0  0  0  0
 59 60  1  0  0  0  0
 60 61  2  0  0  0  0
 61 62  4  0  0  0  0
 57 63  1  0  0  0  0
 59 63  4  0  0  0  0
 62 63  4  0  0  0  0
 62 64  4  0  0  0  0
 64 65  4  0  0  0  0
 65 66  4  0  0  0  0
 66 67  2  0  0  0  0
 57 68  1  0  0  0  0
 65 68  4  0  0  0  0
 67 69  4  0  0  0  0
 68 69  4  0  0  0  0
 69 70  4  0  0  0  0
 70 71  4  0  0  0  0
 71 72  4  0  0  0  0
 72 73  2  0  0  0  0
 73 74  4  0  0  0  0
 74 75  4  0  0  0  0
 75 76  1  0  0  0  0
 76 77  4  0  0  0  0
 77 78  4  0  0  0  0
 78 79  4  0  0  0  0
 79 80  4  0  0  0  0
 76 81  4  0  0  0  0
 80 81  4  0  0  0  0
 75 82  4  0  0  0  0
 82 83  4  0  0  0  0
 83 84  2  0  0  0  0
 58 85  4  0  0  0  0
 84 85  1  0  0  0  0
 57 86  1  0  0  0  0
 82 86  4  0  0  0  0
 85 86  4  0  0  0  0
 57 87  1  0  0  0  0
 71 87  4  0  0  0  0
 74 87  4  0  0  0  0
 64 88  1  0  0  0  0
 88 89  4  0  0  0  0
 89 90  4  0  0  0  0
 90 91  4  0  0  0  0
 91 92  4  0  0  0  0
 88 93  4  0  0  0  0
 92 93  4  0  0  0  0
 58 94  1  0  0  0  0
 60 95  1  0  0  0  0
 61 96  1  0  0  0  0
 66 97  1  0  0  0  0
 67 98  1  0  0  0  0
 72 99  1  0  0  0  0
 73100  1  0  0  0  0
 77101  1  0  0  0  0
 78102  1  0  0  0  0
 79103  1  0  0  0  0
 80104  1  0  0  0  0
 81105  1  0  0  0  0
 83106  1  0  0  0  0
 84107  1  0  0  0  0
 89108  1  0  0  0  0
 90109  1  0  0  0  0
 91110  1  0  0  0  0
 92111  1  0  0  0  0
 93112  1  0  0  0  0
 14114  4  0  0  0  0
113114  3  0  0  0  0
113115  4  0  0  0  0
115116  3  0  0  0  0
117118  3  0  0  0  0
117119  4  0  0  0  0
 70120  4  0  0  0  0
119120  3  0  0  0  0
116122  4  0  0  0  0
122123  4  0  0  0  0
123124  4  0  0  0  0
124125  2  0  0  0  0
125126  4  0  0  0  0
121127  1  0  0  0  0
123127  4  0  0  0  0
126127  4  0  0  0  0
126128  4  0  0  0  0
128129  4  0  0  0  0
129130  4  0  0  0  0
130131  2  0  0  0  0
121132  1  0  0  0  0
129132  4  0  0  0  0
131133  4  0  0  0  0
132133  4  0  0  0  0
118134  4  0  0  0  0
133134  4  0  0  0  0
134135  4  0  0  0  0
135136  4  0  0  0  0
136137  2  0  0  0  0
137138  4  0  0  0  0
138139  4  0  0  0  0
139140  1  0  0  0  0
140141  4  0  0  0  0
141142  4  0  0  0  0
142143  4  0  0  0  0
143144  4  0  0  0  0
140145  4  0  0  0  0
144145  4  0  0  0  0
139146  4  0  0  0  0
146147  4  0  0  0  0
147148  2  0  0  0  0
122149  4  0  0  0  0
148149  4  0  0  0  0
121150  1  0  0  0  0
146150  4  0  0  0  0
149150  4  0  0  0  0
121151  1  0  0  0  0
135151  4  0  0  0  0
138151  4  0  0  0  0
128152  1  0  0  0  0
152153  4  0  0  0  0
153154  4  0  0  0  0
154155  4  0  0  0  0
155156  4  0  0  0  0
152157  4  0  0  0  0
156157  4  0  0  0  0
124158  1  0  0  0  0
125159  1  0  0  0  0
130160  1  0  0  0  0
131161  1  0  0  0  0
136162  1  0  0  0  0
137163  1  0  0  0  0
141164  1  0  0  0  0
142165  1  0  0  0  0
143166  1  0  0  0  0
144167  1  0  0  0  0
145168  1  0  0  0  0
147169  1  0  0  0  0
148170  1  0  0  0  0
153171  1  0  0  0  0
154172  1  0  0  0  0
155173  1  0  0  0  0
156174  1  0  0  0  0
157175  1  0  0  0  0
M  END
