122

Zn 14.656818 -0.012248 -0.014986
C 11.271112 0.130075 0.032890
C 11.936607 0.919878 0.880411
C 11.289002 1.805407 1.841145
C 12.233514 2.453381 2.497833
C 13.538036 2.014818 1.982446
N 13.356390 1.037301 0.957787
C 14.731408 2.488247 2.388714
C 14.772820 3.502124 3.418922
C 14.809849 4.347342 4.277663
C 14.854759 5.355654 5.302444
C 16.060352 6.000814 5.601722
C 16.082203 6.977393 6.601069
N 14.941157 7.292607 7.271922
C 13.758646 6.678086 6.997457
C 13.693219 5.696076 6.005396
C 16.026309 2.033319 1.822941
C 17.317624 2.653030 2.143863
C 18.253973 1.990967 1.495909
N 16.166724 1.029413 1.011468
C 17.568537 0.937888 0.755545
C 18.164570 -0.000202 0.000056
C 17.407582 -1.047444 -0.726096
C 17.960464 -2.128320 -1.262830
C 16.914017 -2.850535 -1.957967
C 15.787440 -2.164661 -1.800661
N 16.009189 -0.992042 -1.013649
C 14.489974 -2.535745 -2.419815
C 14.483278 -3.545962 -3.456044
C 14.478141 -4.387697 -4.319070
C 14.471842 -5.392039 -5.348771
C 15.664919 -6.016274 -5.729407
C 15.637053 -6.988891 -6.732508
N 14.460132 -7.320806 -7.328316
C 13.288783 -6.727077 -6.973851
C 13.272648 -5.749471 -5.975259
C 13.326911 -1.973173 -2.048665
C 12.007218 -2.289668 -2.592798
C 11.145071 -1.561929 -1.909673
C 11.904529 -0.778677 -0.936071
N 13.177498 -1.011265 -1.006976
H 10.187667 0.153657 0.051960
H 10.224653 1.924261 1.998572
H 12.051118 3.185114 3.274458
H 16.971083 5.751968 5.069238
H 17.006752 7.484804 6.843438
H 12.868977 6.951846 7.549350
H 12.749688 5.208701 5.789071
H 17.492296 3.501155 2.793034
H 19.313181 2.207970 1.531945
H 19.002279 -2.415429 -1.217061
H 17.039702 -3.766791 -2.520288
H 16.604044 -5.754380 -5.256775
H 16.551597 -7.480027 -7.037322
H 12.369608 -7.013786 -7.467166
H 12.337792 -5.278601 -5.695431
H 11.759899 -2.983385 -3.386097
H 10.072370 -1.558509 -2.051876
Zn 31.128906 0.018890 0.002671
C 34.514612 -0.095259 -0.094889
C 33.849116 -1.228033 -0.337590
C 34.496722 -2.507105 -0.604322
C 33.552210 -3.403302 -0.823277
C 32.247687 -2.735869 -0.711494
N 32.429333 -1.354715 -0.398638
C 31.054316 -3.327558 -0.909215
C 31.012903 -4.732139 -1.250427
C 30.975874 -5.902990 -1.534924
C 30.930965 -7.300058 -1.874146
C 29.725372 -7.888091 -2.274166
C 29.703521 -9.247041 -2.599212
N 30.844566 -9.984568 -2.525329
C 32.027077 -9.433557 -2.138864
C 32.092504 -8.078071 -1.805417
C 29.759415 -2.608485 -0.809255
C 28.468100 -3.202027 -1.176325
C 27.531750 -2.306093 -0.940796
N 29.619000 -1.396733 -0.364311
C 28.217186 -1.130122 -0.417148
C 27.621154 -0.000202 0.000056
C 28.378142 1.160575 0.525990
C 27.825260 2.176066 1.178029
C 28.871707 3.143371 1.440956
C 29.998283 2.656273 0.933114
N 29.776535 1.378904 0.330827
C 31.295749 3.378115 0.933717
C 31.302446 4.785985 1.268697
C 31.307583 5.958725 1.548006
C 31.313881 7.357976 1.881294
C 30.120804 8.005086 2.221592
C 30.148671 9.365224 2.541310
N 31.325591 10.046922 2.520285
C 32.496940 9.437933 2.192732
C 32.513076 8.079103 1.866417
C 32.458812 2.770801 0.641468
C 33.778505 3.400238 0.633739
C 34.640652 2.440405 0.359903
C 33.881194 1.202794 0.187549
N 32.608225 1.383046 0.350749
H 35.598056 -0.123731 -0.105336
H 35.561071 -2.703220 -0.625502
H 33.734606 -4.445423 -1.052540
H 28.814640 -7.303380 -2.333970
H 28.778972 -9.715521 -2.910235
H 32.916747 -10.047714 -2.090476
H 33.036035 -7.642227 -1.498219
H 28.293428 -4.194523 -1.570902
H 26.472542 -2.448419 -1.108522
H 26.783445 2.284179 1.447914
H 28.746022 4.096310 1.938588
H 29.181679 7.465040 2.239473
H 29.234127 9.878937 2.806309
H 33.416116 10.008467 2.185529
H 33.447932 7.597235 1.605983
H 34.025824 4.437153 0.821817
H 35.713353 2.560684 0.283967
C 23.496782 0.001109 0.008488
C 22.287843 -0.012346 0.000041
C 20.866314 -0.003527 -0.011942
C 19.654644 0.003912 -0.001079
C 24.913386 -0.005566 0.009021
C 26.134082 0.003912 -0.001079
