 xtb: 6.5.1 (b24c23e)
          07272219333D

124137  0     0  0            999 V2000
   10.9892    0.1116    0.0643 C   0  0  0  0  0  0  0  0  0  0  0  0
   11.5972    1.3593    0.0134 C   0  0  0  0  0  0  0  0  0  0  0  0
   10.9445    2.6239   -0.0019 C   0  0  0  0  0  0  0  0  0  0  0  0
   11.9051    3.5928   -0.0758 C   0  0  0  0  0  0  0  0  0  0  0  0
   13.1758    2.9504   -0.1168 C   0  0  0  0  0  0  0  0  0  0  0  0
   12.9396    1.6070   -0.0496 N   0  0  0  0  0  0  0  0  0  0  0  0
   14.4380    3.5510   -0.1872 C   0  0  0  0  0  0  0  0  0  0  0  0
   14.4667    5.0296   -0.2879 C   0  0  0  0  0  0  0  0  0  0  0  0
   15.0994    5.7953    0.6942 C   0  0  0  0  0  0  0  0  0  0  0  0
   15.1280    7.1752    0.6026 C   0  0  0  0  0  0  0  0  0  0  0  0
   14.5248    7.8185   -0.4822 C   0  0  0  0  0  0  0  0  0  0  0  0
   14.5554    9.2382   -0.5822 C   0  0  0  0  0  0  0  0  0  0  0  0
   14.5810   10.3857   -0.6641 N   0  0  0  0  0  0  0  0  0  0  0  0
   13.8912    7.0571   -1.4686 C   0  0  0  0  0  0  0  0  0  0  0  0
   13.8618    5.6777   -1.3675 C   0  0  0  0  0  0  0  0  0  0  0  0
   15.6552    2.8650   -0.1717 C   0  0  0  0  0  0  0  0  0  0  0  0
   16.9507    3.5075   -0.3026 C   0  0  0  0  0  0  0  0  0  0  0  0
   17.8728    2.5251   -0.2353 C   0  0  0  0  0  0  0  0  0  0  0  0
   15.8115    1.5179   -0.0528 N   0  0  0  0  0  0  0  0  0  0  0  0
   17.1392    1.2843   -0.0773 C   0  0  0  0  0  0  0  0  0  0  0  0
   17.7785    0.0326    0.0338 C   0  0  0  0  0  0  0  0  0  0  0  0
   17.1441   -1.2207    0.1291 C   0  0  0  0  0  0  0  0  0  0  0  0
   17.7901   -2.4798    0.2476 C   0  0  0  0  0  0  0  0  0  0  0  0
   16.8247   -3.4474    0.2844 C   0  0  0  0  0  0  0  0  0  0  0  0
   15.5582   -2.8075    0.1823 C   0  0  0  0  0  0  0  0  0  0  0  0
   15.8032   -1.4624    0.1011 N   0  0  0  0  0  0  0  0  0  0  0  0
   14.2966   -3.4128    0.1917 C   0  0  0  0  0  0  0  0  0  0  0  0
   14.2691   -4.8934    0.2440 C   0  0  0  0  0  0  0  0  0  0  0  0
   13.6493   -5.5566    1.3059 C   0  0  0  0  0  0  0  0  0  0  0  0
   13.6237   -6.9388    1.3550 C   0  0  0  0  0  0  0  0  0  0  0  0
   14.2164   -7.6882    0.3342 C   0  0  0  0  0  0  0  0  0  0  0  0
   14.1897   -9.1107    0.3791 C   0  0  0  0  0  0  0  0  0  0  0  0
   14.1661  -10.2606    0.4165 N   0  0  0  0  0  0  0  0  0  0  0  0
   14.8362   -7.0296   -0.7320 C   0  0  0  0  0  0  0  0  0  0  0  0
   14.8630   -5.6472   -0.7716 C   0  0  0  0  0  0  0  0  0  0  0  0
   13.0782   -2.7262    0.1522 C   0  0  0  0  0  0  0  0  0  0  0  0
   11.7742   -3.3708    0.1180 C   0  0  0  0  0  0  0  0  0  0  0  0
   10.8596   -2.3808    0.0900 C   0  0  0  0  0  0  0  0  0  0  0  0
   11.6034   -1.1334    0.0914 C   0  0  0  0  0  0  0  0  0  0  0  0
   12.9362   -1.3802    0.1209 N   0  0  0  0  0  0  0  0  0  0  0  0
    9.9040    0.1204    0.0772 H   0  0  0  0  0  0  0  0  0  0  0  0
    9.8760    2.7612    0.0436 H   0  0  0  0  0  0  0  0  0  0  0  0
   11.7531    4.6599   -0.0909 H   0  0  0  0  0  0  0  0  0  0  0  0
   13.6652    0.8979   -0.0447 H   0  0  0  0  0  0  0  0  0  0  0  0
   15.5573    5.3009    1.5434 H   0  0  0  0  0  0  0  0  0  0  0  0
   15.6167    7.7624    1.3711 H   0  0  0  0  0  0  0  0  0  0  0  0
   13.4261    7.5519   -2.3132 H   0  0  0  0  0  0  0  0  0  0  0  0
   13.3821    5.0906   -2.1425 H   0  0  0  0  0  0  0  0  0  0  0  0
   17.1114    4.5643   -0.4416 H   0  0  0  0  0  0  0  0  0  0  0  0
   18.9464    2.6049   -0.2949 H   0  0  0  0  0  0  0  0  0  0  0  0
   18.8579   -2.6172    0.3018 H   0  0  0  0  0  0  0  0  0  0  0  0
   16.9735   -4.5101    0.3845 H   0  0  0  0  0  0  0  0  0  0  0  0
   15.0802   -0.7534    0.0349 H   0  0  0  0  0  0  0  0  0  0  0  0
   13.2004   -4.9797    2.1064 H   0  0  0  0  0  0  0  0  0  0  0  0
   13.1459   -7.4459    2.1850 H   0  0  0  0  0  0  0  0  0  0  0  0
   15.2933   -7.6067   -1.5273 H   0  0  0  0  0  0  0  0  0  0  0  0
   15.3322   -5.1409   -1.6078 H   0  0  0  0  0  0  0  0  0  0  0  0
   11.6063   -4.4356    0.1045 H   0  0  0  0  0  0  0  0  0  0  0  0
    9.7839   -2.4557    0.0596 H   0  0  0  0  0  0  0  0  0  0  0  0
   33.7425   -0.0888    0.0952 C   0  0  0  0  0  0  0  0  0  0  0  0
   33.1346   -1.3010    0.3952 C   0  0  0  0  0  0  0  0  0  0  0  0
   33.7875   -2.5189    0.7361 C   0  0  0  0  0  0  0  0  0  0  0  0
   32.8271   -3.4707    0.9333 C   0  0  0  0  0  0  0  0  0  0  0  0
   31.5566   -2.8665    0.7106 C   0  0  0  0  0  0  0  0  0  0  0  0
   31.7925   -1.5576    0.4007 N   0  0  0  0  0  0  0  0  0  0  0  0
   30.2945   -3.4642    0.8059 C   0  0  0  0  0  0  0  0  0  0  0  0
   30.2659   -4.9125    1.1198 C   0  0  0  0  0  0  0  0  0  0  0  0
   29.6269   -5.3761    2.2722 C   0  0  0  0  0  0  0  0  0  0  0  0
   29.5979   -6.7272    2.5673 C   0  0  0  0  0  0  0  0  0  0  0  0
   30.2075   -7.6458    1.7077 C   0  0  0  0  0  0  0  0  0  0  0  0
   30.1759   -9.0374    2.0057 C   0  0  0  0  0  0  0  0  0  0  0  0
   30.1504  -10.1628    2.2443 N   0  0  0  0  0  0  0  0  0  0  0  0
   30.8478   -7.1875    0.5525 C   0  0  0  0  0  0  0  0  0  0  0  0
   30.8772   -5.8344    0.2664 C   0  0  0  0  0  0  0  0  0  0  0  0
   29.0773   -2.8017    0.6268 C   0  0  0  0  0  0  0  0  0  0  0  0
   27.7821   -3.4561    0.6750 C   0  0  0  0  0  0  0  0  0  0  0  0
   26.8599   -2.4937    0.4668 C   0  0  0  0  0  0  0  0  0  0  0  0
   28.9209   -1.4742    0.3687 N   0  0  0  0  0  0  0  0  0  0  0  0
   27.5933   -1.2571    0.2783 C   0  0  0  0  0  0  0  0  0  0  0  0
   26.9538   -0.0232    0.0404 C   0  0  0  0  0  0  0  0  0  0  0  0
   27.5879    1.2079   -0.2133 C   0  0  0  0  0  0  0  0  0  0  0  0
   26.9418    2.4511   -0.4447 C   0  0  0  0  0  0  0  0  0  0  0  0
   27.9070    3.3912   -0.6779 C   0  0  0  0  0  0  0  0  0  0  0  0
   29.1734    2.7476   -0.6025 C   0  0  0  0  0  0  0  0  0  0  0  0
   28.9288    1.4323   -0.3091 N   0  0  0  0  0  0  0  0  0  0  0  0
   30.4349    3.3314   -0.7643 C   0  0  0  0  0  0  0  0  0  0  0  0
   30.4622    4.7681   -1.1252 C   0  0  0  0  0  0  0  0  0  0  0  0
   31.0874    5.6995   -0.2925 C   0  0  0  0  0  0  0  0  0  0  0  0
   31.1123    7.0410   -0.6289 C   0  0  0  0  0  0  0  0  0  0  0  0
   30.5132    7.4783   -1.8141 C   0  0  0  0  0  0  0  0  0  0  0  0
   30.5392    8.8577   -2.1647 C   0  0  0  0  0  0  0  0  0  0  0  0
   30.5613    9.9728   -2.4485 N   0  0  0  0  0  0  0  0  0  0  0  0
   29.8879    6.5503   -2.6523 C   0  0  0  0  0  0  0  0  0  0  0  0
   29.8621    5.2112   -2.3067 C   0  0  0  0  0  0  0  0  0  0  0  0
   31.6534    2.6603   -0.6141 C   0  0  0  0  0  0  0  0  0  0  0  0
   32.9573    3.2690   -0.8293 C   0  0  0  0  0  0  0  0  0  0  0  0
   33.8719    2.3106   -0.5800 C   0  0  0  0  0  0  0  0  0  0  0  0
   33.1282    1.1136   -0.2284 C   0  0  0  0  0  0  0  0  0  0  0  0
   31.7954    1.3591   -0.2681 N   0  0  0  0  0  0  0  0  0  0  0  0
   34.8277   -0.0933    0.1113 H   0  0  0  0  0  0  0  0  0  0  0  0
   34.8559   -2.6370    0.8213 H   0  0  0  0  0  0  0  0  0  0  0  0
   32.9792   -4.4993    1.2177 H   0  0  0  0  0  0  0  0  0  0  0  0
   31.0668   -0.8761    0.2053 H   0  0  0  0  0  0  0  0  0  0  0  0
   29.1640   -4.6658    2.9478 H   0  0  0  0  0  0  0  0  0  0  0  0
   29.1039   -7.0783    3.4656 H   0  0  0  0  0  0  0  0  0  0  0  0
   31.3180   -7.8969   -0.1185 H   0  0  0  0  0  0  0  0  0  0  0  0
   31.3618   -5.4852   -0.6384 H   0  0  0  0  0  0  0  0  0  0  0  0
   27.6215   -4.5103    0.8322 H   0  0  0  0  0  0  0  0  0  0  0  0
   25.7865   -2.5874    0.4289 H   0  0  0  0  0  0  0  0  0  0  0  0
   25.8740    2.5984   -0.4285 H   0  0  0  0  0  0  0  0  0  0  0  0
   27.7580    4.4405   -0.8737 H   0  0  0  0  0  0  0  0  0  0  0  0
   29.6519    0.7325   -0.1785 H   0  0  0  0  0  0  0  0  0  0  0  0
   31.5410    5.3672    0.6344 H   0  0  0  0  0  0  0  0  0  0  0  0
   31.5945    7.7581    0.0251 H   0  0  0  0  0  0  0  0  0  0  0  0
   29.4261    6.8846   -3.5739 H   0  0  0  0  0  0  0  0  0  0  0  0
   29.3889    4.4931   -2.9670 H   0  0  0  0  0  0  0  0  0  0  0  0
   33.1252    4.2872   -1.1411 H   0  0  0  0  0  0  0  0  0  0  0  0
   34.9475    2.3736   -0.6315 H   0  0  0  0  0  0  0  0  0  0  0  0
   22.9804    0.0051    0.0535 C   0  0  0  0  0  0  0  0  0  0  0  0
   21.7519    0.0073    0.0537 C   0  0  0  0  0  0  0  0  0  0  0  0
   20.4079    0.0109    0.0492 C   0  0  0  0  0  0  0  0  0  0  0  0
   19.1838    0.0204    0.0422 C   0  0  0  0  0  0  0  0  0  0  0  0
   24.3244    0.0005    0.0496 C   0  0  0  0  0  0  0  0  0  0  0  0
   25.5484   -0.0092    0.0453 C   0  0  0  0  0  0  0  0  0  0  0  0
  1  2  4  0  0  0  0
  2  3  4  0  0  0  0
  3  4  2  0  0  0  0
  4  5  4  0  0  0  0
  2  6  4  0  0  0  0
  5  6  4  0  0  0  0
  5  7  4  0  0  0  0
  7  8  1  0  0  0  0
  8  9  4  0  0  0  0
  9 10  4  0  0  0  0
 10 11  4  0  0  0  0
 11 12  1  0  0  0  0
 12 13  3  0  0  0  0
 11 14  4  0  0  0  0
  8 15  4  0  0  0  0
 14 15  4  0  0  0  0
  7 16  4  0  0  0  0
 16 17  1  0  0  0  0
 17 18  2  0  0  0  0
 16 19  4  0  0  0  0
 18 20  1  0  0  0  0
 19 20  4  0  0  0  0
 20 21  4  0  0  0  0
 21 22  4  0  0  0  0
 22 23  4  0  0  0  0
 23 24  2  0  0  0  0
 24 25  4  0  0  0  0
 22 26  4  0  0  0  0
 25 26  4  0  0  0  0
 25 27  4  0  0  0  0
 27 28  1  0  0  0  0
 28 29  4  0  0  0  0
 29 30  4  0  0  0  0
 30 31  4  0  0  0  0
 31 32  1  0  0  0  0
 32 33  3  0  0  0  0
 31 34  4  0  0  0  0
 28 35  4  0  0  0  0
 34 35  4  0  0  0  0
 27 36  4  0  0  0  0
 36 37  1  0  0  0  0
 37 38  2  0  0  0  0
  1 39  4  0  0  0  0
 38 39  1  0  0  0  0
 36 40  4  0  0  0  0
 39 40  4  0  0  0  0
  1 41  1  0  0  0  0
  3 42  1  0  0  0  0
  4 43  1  0  0  0  0
  6 44  1  0  0  0  0
  9 45  1  0  0  0  0
 10 46  1  0  0  0  0
 14 47  1  0  0  0  0
 15 48  1  0  0  0  0
 17 49  1  0  0  0  0
 18 50  1  0  0  0  0
 23 51  1  0  0  0  0
 24 52  1  0  0  0  0
 26 53  1  0  0  0  0
 29 54  1  0  0  0  0
 30 55  1  0  0  0  0
 34 56  1  0  0  0  0
 35 57  1  0  0  0  0
 37 58  1  0  0  0  0
 38 59  1  0  0  0  0
 60 61  4  0  0  0  0
 61 62  4  0  0  0  0
 62 63  2  0  0  0  0
 63 64  4  0  0  0  0
 61 65  4  0  0  0  0
 64 65  4  0  0  0  0
 64 66  4  0  0  0  0
 66 67  1  0  0  0  0
 67 68  4  0  0  0  0
 68 69  4  0  0  0  0
 69 70  4  0  0  0  0
 70 71  1  0  0  0  0
 71 72  3  0  0  0  0
 70 73  4  0  0  0  0
 67 74  4  0  0  0  0
 73 74  4  0  0  0  0
 66 75  4  0  0  0  0
 75 76  1  0  0  0  0
 76 77  2  0  0  0  0
 75 78  4  0  0  0  0
 77 79  1  0  0  0  0
 78 79  4  0  0  0  0
 79 80  4  0  0  0  0
 80 81  4  0  0  0  0
 81 82  4  0  0  0  0
 82 83  2  0  0  0  0
 83 84  4  0  0  0  0
 81 85  4  0  0  0  0
 84 85  4  0  0  0  0
 84 86  4  0  0  0  0
 86 87  1  0  0  0  0
 87 88  4  0  0  0  0
 88 89  4  0  0  0  0
 89 90  4  0  0  0  0
 90 91  1  0  0  0  0
 91 92  3  0  0  0  0
 90 93  4  0  0  0  0
 87 94  4  0  0  0  0
 93 94  4  0  0  0  0
 86 95  4  0  0  0  0
 95 96  1  0  0  0  0
 96 97  2  0  0  0  0
 60 98  4  0  0  0  0
 97 98  1  0  0  0  0
 95 99  4  0  0  0  0
 98 99  4  0  0  0  0
 60100  1  0  0  0  0
 62101  1  0  0  0  0
 63102  1  0  0  0  0
 65103  1  0  0  0  0
 68104  1  0  0  0  0
 69105  1  0  0  0  0
 73106  1  0  0  0  0
 74107  1  0  0  0  0
 76108  1  0  0  0  0
 77109  1  0  0  0  0
 82110  1  0  0  0  0
 83111  1  0  0  0  0
 85112  1  0  0  0  0
 88113  1  0  0  0  0
 89114  1  0  0  0  0
 93115  1  0  0  0  0
 94116  1  0  0  0  0
 96117  1  0  0  0  0
 97118  1  0  0  0  0
119120  3  0  0  0  0
120121  4  0  0  0  0
 21122  4  0  0  0  0
121122  3  0  0  0  0
119123  4  0  0  0  0
 80124  4  0  0  0  0
123124  3  0  0  0  0
M  END
