 xtb: 6.5.1 (b24c23e)
          07282214463D

240267  0     0  0            999 V2000
   51.3510    0.0827   -0.1165 C   0  0  0  0  0  0  0  0  0  0  0  0
   51.9719    0.8528   -1.0933 C   0  0  0  0  0  0  0  0  0  0  0  0
   51.3416    1.6550   -2.0840 C   0  0  0  0  0  0  0  0  0  0  0  0
   52.3224    2.2383   -2.8386 C   0  0  0  0  0  0  0  0  0  0  0  0
   53.5776    1.8068   -2.3315 C   0  0  0  0  0  0  0  0  0  0  0  0
   53.3208    0.9770   -1.2826 N   0  0  0  0  0  0  0  0  0  0  0  0
   54.8530    2.1509   -2.8135 C   0  0  0  0  0  0  0  0  0  0  0  0
   54.8961    3.0354   -3.9139 C   0  0  0  0  0  0  0  0  0  0  0  0
   54.9264    3.8050   -4.8516 C   0  0  0  0  0  0  0  0  0  0  0  0
   54.9746    4.7061   -5.9395 C   0  0  0  0  0  0  0  0  0  0  0  0
   53.8082    5.2780   -6.4614 C   0  0  0  0  0  0  0  0  0  0  0  0
   53.9107    6.1581   -7.5239 C   0  0  0  0  0  0  0  0  0  0  0  0
   55.0715    6.4921   -8.0825 N   0  0  0  0  0  0  0  0  0  0  0  0
   56.1845    5.9522   -7.5926 C   0  0  0  0  0  0  0  0  0  0  0  0
   56.1912    5.0631   -6.5326 C   0  0  0  0  0  0  0  0  0  0  0  0
   56.0729    1.6933   -2.2884 C   0  0  0  0  0  0  0  0  0  0  0  0
   57.3632    2.0682   -2.8327 C   0  0  0  0  0  0  0  0  0  0  0  0
   58.2907    1.4545   -2.0679 C   0  0  0  0  0  0  0  0  0  0  0  0
   56.2285    0.8705   -1.2234 N   0  0  0  0  0  0  0  0  0  0  0  0
   57.5617    0.7096   -1.0593 C   0  0  0  0  0  0  0  0  0  0  0  0
   58.1942   -0.0336   -0.0472 C   0  0  0  0  0  0  0  0  0  0  0  0
   57.5499   -0.7652    0.9676 C   0  0  0  0  0  0  0  0  0  0  0  0
   58.1740   -1.5335    1.9850 C   0  0  0  0  0  0  0  0  0  0  0  0
   57.1893   -2.1155    2.7371 C   0  0  0  0  0  0  0  0  0  0  0  0
   55.9382   -1.7173    2.1983 C   0  0  0  0  0  0  0  0  0  0  0  0
   56.2024   -0.9006    1.1363 N   0  0  0  0  0  0  0  0  0  0  0  0
   54.6636   -2.0958    2.6554 C   0  0  0  0  0  0  0  0  0  0  0  0
   54.6205   -2.9764    3.7577 C   0  0  0  0  0  0  0  0  0  0  0  0
   54.5830   -3.7406    4.7000 C   0  0  0  0  0  0  0  0  0  0  0  0
   54.5308   -4.6349    5.7929 C   0  0  0  0  0  0  0  0  0  0  0  0
   55.6986   -5.0890    6.4174 C   0  0  0  0  0  0  0  0  0  0  0  0
   55.5917   -5.9664    7.4816 C   0  0  0  0  0  0  0  0  0  0  0  0
   54.4255   -6.4067    7.9474 N   0  0  0  0  0  0  0  0  0  0  0  0
   53.3109   -5.9801    7.3589 C   0  0  0  0  0  0  0  0  0  0  0  0
   53.3082   -5.1028    6.2893 C   0  0  0  0  0  0  0  0  0  0  0  0
   53.4425   -1.6729    2.1002 C   0  0  0  0  0  0  0  0  0  0  0  0
   52.1451   -2.0828    2.6093 C   0  0  0  0  0  0  0  0  0  0  0  0
   51.2239   -1.4722    1.8364 C   0  0  0  0  0  0  0  0  0  0  0  0
   51.9616   -0.6936    0.8568 C   0  0  0  0  0  0  0  0  0  0  0  0
   53.2997   -0.8421    1.0486 N   0  0  0  0  0  0  0  0  0  0  0  0
   50.2658    0.0976   -0.1241 H   0  0  0  0  0  0  0  0  0  0  0  0
   50.2746    1.7644   -2.1948 H   0  0  0  0  0  0  0  0  0  0  0  0
   52.1979    2.9077   -3.6747 H   0  0  0  0  0  0  0  0  0  0  0  0
   54.0302    0.5168   -0.7220 H   0  0  0  0  0  0  0  0  0  0  0  0
   52.8423    5.0335   -6.0359 H   0  0  0  0  0  0  0  0  0  0  0  0
   53.0224    6.6178   -7.9477 H   0  0  0  0  0  0  0  0  0  0  0  0
   57.1140    6.2464   -8.0720 H   0  0  0  0  0  0  0  0  0  0  0  0
   57.1217    4.6470   -6.1652 H   0  0  0  0  0  0  0  0  0  0  0  0
   57.5102    2.7143   -3.6834 H   0  0  0  0  0  0  0  0  0  0  0  0
   59.3650    1.4909   -2.1532 H   0  0  0  0  0  0  0  0  0  0  0  0
   59.2400   -1.6282    2.1148 H   0  0  0  0  0  0  0  0  0  0  0  0
   57.3108   -2.7650    3.5889 H   0  0  0  0  0  0  0  0  0  0  0  0
   55.4954   -0.4657    0.5529 H   0  0  0  0  0  0  0  0  0  0  0  0
   56.6692   -4.7562    6.0697 H   0  0  0  0  0  0  0  0  0  0  0  0
   56.4812   -6.3345    7.9849 H   0  0  0  0  0  0  0  0  0  0  0  0
   52.3769   -6.3594    7.7636 H   0  0  0  0  0  0  0  0  0  0  0  0
   52.3767   -4.7811    5.8395 H   0  0  0  0  0  0  0  0  0  0  0  0
   51.9932   -2.7462    3.4459 H   0  0  0  0  0  0  0  0  0  0  0  0
   50.1481   -1.5234    1.8968 H   0  0  0  0  0  0  0  0  0  0  0  0
   91.0428   -0.0815    0.0499 C   0  0  0  0  0  0  0  0  0  0  0  0
   90.4472   -0.7611    1.1063 C   0  0  0  0  0  0  0  0  0  0  0  0
   91.1029   -1.4444    2.1670 C   0  0  0  0  0  0  0  0  0  0  0  0
   90.1412   -1.9753    2.9824 C   0  0  0  0  0  0  0  0  0  0  0  0
   88.8727   -1.6303    2.4429 C   0  0  0  0  0  0  0  0  0  0  0  0
   89.1028   -0.9000    1.3167 N   0  0  0  0  0  0  0  0  0  0  0  0
   87.6095   -1.9763    2.9551 C   0  0  0  0  0  0  0  0  0  0  0  0
   87.6002   -2.7553    4.1335 C   0  0  0  0  0  0  0  0  0  0  0  0
   87.6002   -3.4199    5.1489 C   0  0  0  0  0  0  0  0  0  0  0  0
   87.5924   -4.1972    6.3295 C   0  0  0  0  0  0  0  0  0  0  0  0
   88.7832   -4.5415    6.9800 C   0  0  0  0  0  0  0  0  0  0  0  0
   88.7209   -5.3036    8.1329 C   0  0  0  0  0  0  0  0  0  0  0  0
   87.5772   -5.7322    8.6609 N   0  0  0  0  0  0  0  0  0  0  0  0
   86.4408   -5.4100    8.0479 C   0  0  0  0  0  0  0  0  0  0  0  0
   86.3936   -4.6521    6.8915 C   0  0  0  0  0  0  0  0  0  0  0  0
   86.3741   -1.6176    2.3917 C   0  0  0  0  0  0  0  0  0  0  0  0
   85.0996   -2.0151    2.9563 C   0  0  0  0  0  0  0  0  0  0  0  0
   84.1494   -1.4893    2.1548 C   0  0  0  0  0  0  0  0  0  0  0  0
   86.1861   -0.8715    1.2759 N   0  0  0  0  0  0  0  0  0  0  0  0
   84.8479   -0.7718    1.1062 C   0  0  0  0  0  0  0  0  0  0  0  0
   84.1858   -0.0898    0.0683 C   0  0  0  0  0  0  0  0  0  0  0  0
   84.8073    0.6025   -0.9890 C   0  0  0  0  0  0  0  0  0  0  0  0
   84.1607    1.3150   -2.0319 C   0  0  0  0  0  0  0  0  0  0  0  0
   85.1274    1.8430   -2.8447 C   0  0  0  0  0  0  0  0  0  0  0  0
   86.3904    1.4697   -2.3167 C   0  0  0  0  0  0  0  0  0  0  0  0
   86.1506    0.7236   -1.1981 N   0  0  0  0  0  0  0  0  0  0  0  0
   87.6524    1.8030   -2.8395 C   0  0  0  0  0  0  0  0  0  0  0  0
   87.6639    2.5833   -4.0159 C   0  0  0  0  0  0  0  0  0  0  0  0
   87.6695    3.2569   -5.0256 C   0  0  0  0  0  0  0  0  0  0  0  0
   87.6826    4.0432   -6.1998 C   0  0  0  0  0  0  0  0  0  0  0  0
   86.4928    4.4842   -6.7912 C   0  0  0  0  0  0  0  0  0  0  0  0
   86.5598    5.2529   -7.9394 C   0  0  0  0  0  0  0  0  0  0  0  0
   87.7074    5.5985   -8.5177 N   0  0  0  0  0  0  0  0  0  0  0  0
   88.8428    5.1832   -7.9617 C   0  0  0  0  0  0  0  0  0  0  0  0
   88.8854    4.4115   -6.8143 C   0  0  0  0  0  0  0  0  0  0  0  0
   88.8890    1.4290   -2.2838 C   0  0  0  0  0  0  0  0  0  0  0  0
   90.1713    1.7976   -2.8585 C   0  0  0  0  0  0  0  0  0  0  0  0
   91.1146    1.2716   -2.0510 C   0  0  0  0  0  0  0  0  0  0  0  0
   90.4053    0.5843   -0.9859 C   0  0  0  0  0  0  0  0  0  0  0  0
   89.0622    0.7008   -1.1631 N   0  0  0  0  0  0  0  0  0  0  0  0
   92.1280   -0.0770    0.0441 H   0  0  0  0  0  0  0  0  0  0  0  0
   92.1729   -1.5145    2.2806 H   0  0  0  0  0  0  0  0  0  0  0  0
   90.2869   -2.5553    3.8795 H   0  0  0  0  0  0  0  0  0  0  0  0
   88.3798   -0.5144    0.7187 H   0  0  0  0  0  0  0  0  0  0  0  0
   89.7370   -4.2137    6.5842 H   0  0  0  0  0  0  0  0  0  0  0  0
   89.6292   -5.5845    8.6583 H   0  0  0  0  0  0  0  0  0  0  0  0
   85.5262   -5.7761    8.5053 H   0  0  0  0  0  0  0  0  0  0  0  0
   85.4458   -4.4127    6.4248 H   0  0  0  0  0  0  0  0  0  0  0  0
   84.9774   -2.6161    3.8431 H   0  0  0  0  0  0  0  0  0  0  0  0
   83.0779   -1.5713    2.2399 H   0  0  0  0  0  0  0  0  0  0  0  0
   83.0928    1.4131   -2.1378 H   0  0  0  0  0  0  0  0  0  0  0  0
   84.9858    2.4407   -3.7307 H   0  0  0  0  0  0  0  0  0  0  0  0
   86.8703    0.3222   -0.6061 H   0  0  0  0  0  0  0  0  0  0  0  0
   85.5362    4.2259   -6.3531 H   0  0  0  0  0  0  0  0  0  0  0  0
   85.6525    5.6090   -8.4188 H   0  0  0  0  0  0  0  0  0  0  0  0
   89.7606    5.4832   -8.4592 H   0  0  0  0  0  0  0  0  0  0  0  0
   89.8329    4.0953   -6.3950 H   0  0  0  0  0  0  0  0  0  0  0  0
   90.2990    2.3798   -3.7573 H   0  0  0  0  0  0  0  0  0  0  0  0
   92.1883    1.3261   -2.1390 H   0  0  0  0  0  0  0  0  0  0  0  0
   59.6050   -0.0562   -0.0340 C   0  0  0  0  0  0  0  0  0  0  0  0
   60.8208   -0.0784   -0.0157 C   0  0  0  0  0  0  0  0  0  0  0  0
   70.5746   -0.1583    0.0585 C   0  0  0  0  0  0  0  0  0  0  0  0
   71.7925   -0.1467    0.0660 C   0  0  0  0  0  0  0  0  0  0  0  0
   81.5591   -0.0950    0.0733 C   0  0  0  0  0  0  0  0  0  0  0  0
   82.7761   -0.0931    0.0733 C   0  0  0  0  0  0  0  0  0  0  0  0
   62.2308   -0.1009   -0.0041 C   0  0  0  0  0  0  0  0  0  0  0  0
   62.8698   -0.1563   -1.2569 C   0  0  0  0  0  0  0  0  0  0  0  0
   62.2463   -0.2147   -2.5292 C   0  0  0  0  0  0  0  0  0  0  0  0
   63.2316   -0.3204   -3.4746 C   0  0  0  0  0  0  0  0  0  0  0  0
   64.4806   -0.3282   -2.8021 C   0  0  0  0  0  0  0  0  0  0  0  0
   64.2168   -0.2192   -1.4677 N   0  0  0  0  0  0  0  0  0  0  0  0
   65.7518   -0.4527   -3.3927 C   0  0  0  0  0  0  0  0  0  0  0  0
   65.7735   -0.6017   -4.7976 C   0  0  0  0  0  0  0  0  0  0  0  0
   65.7875   -0.7339   -6.0039 C   0  0  0  0  0  0  0  0  0  0  0  0
   65.8110   -0.8938   -7.4080 C   0  0  0  0  0  0  0  0  0  0  0  0
   67.0207   -0.9776   -8.1077 C   0  0  0  0  0  0  0  0  0  0  0  0
   66.9906   -1.1354   -9.4817 C   0  0  0  0  0  0  0  0  0  0  0  0
   65.8607   -1.2128  -10.1803 N   0  0  0  0  0  0  0  0  0  0  0  0
   64.7067   -1.1340   -9.5227 C   0  0  0  0  0  0  0  0  0  0  0  0
   64.6272   -0.9751   -8.1506 C   0  0  0  0  0  0  0  0  0  0  0  0
   66.9820   -0.4490   -2.7171 C   0  0  0  0  0  0  0  0  0  0  0  0
   68.2548   -0.6054   -3.3928 C   0  0  0  0  0  0  0  0  0  0  0  0
   69.2037   -0.5270   -2.4363 C   0  0  0  0  0  0  0  0  0  0  0  0
   67.1700   -0.2886   -1.3842 N   0  0  0  0  0  0  0  0  0  0  0  0
   68.5073   -0.3194   -1.1828 C   0  0  0  0  0  0  0  0  0  0  0  0
   69.1661   -0.1625    0.0518 C   0  0  0  0  0  0  0  0  0  0  0  0
   68.5231   -0.0068    1.2964 C   0  0  0  0  0  0  0  0  0  0  0  0
   69.1414    0.1797    2.5581 C   0  0  0  0  0  0  0  0  0  0  0  0
   68.1542    0.2612    3.5036 C   0  0  0  0  0  0  0  0  0  0  0  0
   66.9069    0.1311    2.8413 C   0  0  0  0  0  0  0  0  0  0  0  0
   67.1751   -0.0223    1.5114 N   0  0  0  0  0  0  0  0  0  0  0  0
   65.6353    0.1440    3.4438 C   0  0  0  0  0  0  0  0  0  0  0  0
   65.6147    0.2807    4.8499 C   0  0  0  0  0  0  0  0  0  0  0  0
   65.6044    0.4031    6.0572 C   0  0  0  0  0  0  0  0  0  0  0  0
   65.5884    0.5509    7.4628 C   0  0  0  0  0  0  0  0  0  0  0  0
   64.3848    0.5760    8.1771 C   0  0  0  0  0  0  0  0  0  0  0  0
   64.4247    0.7268    9.5518 C   0  0  0  0  0  0  0  0  0  0  0  0
   65.5584    0.8503   10.2375 N   0  0  0  0  0  0  0  0  0  0  0  0
   66.7068    0.8268    9.5658 C   0  0  0  0  0  0  0  0  0  0  0  0
   66.7765    0.6807    8.1918 C   0  0  0  0  0  0  0  0  0  0  0  0
   64.4031    0.0454    2.7785 C   0  0  0  0  0  0  0  0  0  0  0  0
   63.1262    0.0596    3.4654 C   0  0  0  0  0  0  0  0  0  0  0  0
   62.1784   -0.0118    2.5070 C   0  0  0  0  0  0  0  0  0  0  0  0
   62.8818   -0.0689    1.2409 C   0  0  0  0  0  0  0  0  0  0  0  0
   64.2202   -0.0422    1.4395 N   0  0  0  0  0  0  0  0  0  0  0  0
   61.1812   -0.1862   -2.6927 H   0  0  0  0  0  0  0  0  0  0  0  0
   63.1107   -0.3907   -4.5436 H   0  0  0  0  0  0  0  0  0  0  0  0
   64.9182   -0.1987   -0.7349 H   0  0  0  0  0  0  0  0  0  0  0  0
   67.9636   -0.9193   -7.5773 H   0  0  0  0  0  0  0  0  0  0  0  0
   67.9139   -1.2032  -10.0499 H   0  0  0  0  0  0  0  0  0  0  0  0
   63.8042   -1.2015  -10.1234 H   0  0  0  0  0  0  0  0  0  0  0  0
   63.6655   -0.9157   -7.6551 H   0  0  0  0  0  0  0  0  0  0  0  0
   68.3773   -0.7557   -4.4535 H   0  0  0  0  0  0  0  0  0  0  0  0
   70.2728   -0.6092   -2.5431 H   0  0  0  0  0  0  0  0  0  0  0  0
   70.2046    0.2483    2.7171 H   0  0  0  0  0  0  0  0  0  0  0  0
   68.2731    0.4012    4.5658 H   0  0  0  0  0  0  0  0  0  0  0  0
   66.4754   -0.1317    0.7849 H   0  0  0  0  0  0  0  0  0  0  0  0
   63.4390    0.4791    7.6578 H   0  0  0  0  0  0  0  0  0  0  0  0
   63.5063    0.7503   10.1313 H   0  0  0  0  0  0  0  0  0  0  0  0
   67.6126    0.9302   10.1563 H   0  0  0  0  0  0  0  0  0  0  0  0
   67.7336    0.6671    7.6844 H   0  0  0  0  0  0  0  0  0  0  0  0
   63.0008    0.1186    4.5348 H   0  0  0  0  0  0  0  0  0  0  0  0
   61.1060   -0.0208    2.6191 H   0  0  0  0  0  0  0  0  0  0  0  0
   73.2009   -0.1372    0.0670 C   0  0  0  0  0  0  0  0  0  0  0  0
   73.8359    0.0819   -1.1724 C   0  0  0  0  0  0  0  0  0  0  0  0
   73.2095    0.3173   -2.4217 C   0  0  0  0  0  0  0  0  0  0  0  0
   74.1914    0.4534   -3.3666 C   0  0  0  0  0  0  0  0  0  0  0  0
   75.4430    0.3106   -2.7156 C   0  0  0  0  0  0  0  0  0  0  0  0
   75.1829    0.0941   -1.3929 N   0  0  0  0  0  0  0  0  0  0  0  0
   76.7116    0.3692   -3.3219 C   0  0  0  0  0  0  0  0  0  0  0  0
   76.7226    0.5605   -4.7219 C   0  0  0  0  0  0  0  0  0  0  0  0
   76.7272    0.7193   -5.9250 C   0  0  0  0  0  0  0  0  0  0  0  0
   76.7367    0.9035   -7.3263 C   0  0  0  0  0  0  0  0  0  0  0  0
   77.9375    1.0449   -8.0319 C   0  0  0  0  0  0  0  0  0  0  0  0
   77.8917    1.2225   -9.4032 C   0  0  0  0  0  0  0  0  0  0  0  0
   76.7550    1.2659  -10.0937 N   0  0  0  0  0  0  0  0  0  0  0  0
   75.6094    1.1315   -9.4304 C   0  0  0  0  0  0  0  0  0  0  0  0
   75.5455    0.9503   -8.0603 C   0  0  0  0  0  0  0  0  0  0  0  0
   77.9492    0.2541   -2.6698 C   0  0  0  0  0  0  0  0  0  0  0  0
   79.2191    0.3110   -3.3668 C   0  0  0  0  0  0  0  0  0  0  0  0
   80.1757    0.1809   -2.4235 C   0  0  0  0  0  0  0  0  0  0  0  0
   78.1456    0.0899   -1.3394 N   0  0  0  0  0  0  0  0  0  0  0  0
   79.4854    0.0487   -1.1561 C   0  0  0  0  0  0  0  0  0  0  0  0
   80.1502   -0.1010    0.0746 C   0  0  0  0  0  0  0  0  0  0  0  0
   79.5179   -0.2580    1.3235 C   0  0  0  0  0  0  0  0  0  0  0  0
   80.1464   -0.3820    2.5881 C   0  0  0  0  0  0  0  0  0  0  0  0
   79.1647   -0.5154    3.5338 C   0  0  0  0  0  0  0  0  0  0  0  0
   77.9124   -0.4739    2.8694 C   0  0  0  0  0  0  0  0  0  0  0  0
   78.1712   -0.3139    1.5389 N   0  0  0  0  0  0  0  0  0  0  0  0
   76.6431   -0.5928    3.4655 C   0  0  0  0  0  0  0  0  0  0  0  0
   76.6284   -0.7751    4.8667 C   0  0  0  0  0  0  0  0  0  0  0  0
   76.6191   -0.9230    6.0712 C   0  0  0  0  0  0  0  0  0  0  0  0
   76.5991   -1.0922    7.4744 C   0  0  0  0  0  0  0  0  0  0  0  0
   75.3941   -1.2603    8.1669 C   0  0  0  0  0  0  0  0  0  0  0  0
   75.4274   -1.4193    9.5407 C   0  0  0  0  0  0  0  0  0  0  0  0
   76.5559   -1.4203   10.2457 N   0  0  0  0  0  0  0  0  0  0  0  0
   77.7055   -1.2611    9.5949 C   0  0  0  0  0  0  0  0  0  0  0  0
   77.7816   -1.0952    8.2235 C   0  0  0  0  0  0  0  0  0  0  0  0
   75.4070   -0.5456    2.8025 C   0  0  0  0  0  0  0  0  0  0  0  0
   74.1388   -0.7126    3.4844 C   0  0  0  0  0  0  0  0  0  0  0  0
   73.1820   -0.5915    2.5404 C   0  0  0  0  0  0  0  0  0  0  0  0
   73.8689   -0.3435    1.2891 C   0  0  0  0  0  0  0  0  0  0  0  0
   75.2083   -0.3323    1.4786 N   0  0  0  0  0  0  0  0  0  0  0  0
   72.1449    0.3802   -2.5734 H   0  0  0  0  0  0  0  0  0  0  0  0
   74.0655    0.6388   -4.4211 H   0  0  0  0  0  0  0  0  0  0  0  0
   75.8870   -0.0395   -0.6747 H   0  0  0  0  0  0  0  0  0  0  0  0
   78.8856    1.0158   -7.5086 H   0  0  0  0  0  0  0  0  0  0  0  0
   78.8079    1.3361   -9.9758 H   0  0  0  0  0  0  0  0  0  0  0  0
   74.7010    1.1713  -10.0247 H   0  0  0  0  0  0  0  0  0  0  0  0
   74.5904    0.8450   -7.5597 H   0  0  0  0  0  0  0  0  0  0  0  0
   79.3344    0.4321   -4.4320 H   0  0  0  0  0  0  0  0  0  0  0  0
   81.2462    0.1657   -2.5489 H   0  0  0  0  0  0  0  0  0  0  0  0
   81.2118   -0.3650    2.7492 H   0  0  0  0  0  0  0  0  0  0  0  0
   79.2906   -0.6313    4.5982 H   0  0  0  0  0  0  0  0  0  0  0  0
   77.4668   -0.2423    0.8123 H   0  0  0  0  0  0  0  0  0  0  0  0
   74.4523   -1.2652    7.6315 H   0  0  0  0  0  0  0  0  0  0  0  0
   74.5077   -1.5518   10.1033 H   0  0  0  0  0  0  0  0  0  0  0  0
   78.6070   -1.2667   10.2010 H   0  0  0  0  0  0  0  0  0  0  0  0
   78.7396   -0.9684    7.7337 H   0  0  0  0  0  0  0  0  0  0  0  0
   74.0245   -0.9008    4.5400 H   0  0  0  0  0  0  0  0  0  0  0  0
   72.1130   -0.6654    2.6544 H   0  0  0  0  0  0  0  0  0  0  0  0
  1  2  4  0  0  0  0
  2  3  4  0  0  0  0
  3  4  2  0  0  0  0
  4  5  4  0  0  0  0
  2  6  4  0  0  0  0
  5  6  4  0  0  0  0
  5  7  4  0  0  0  0
  7  8  1  0  0  0  0
  8  9  3  0  0  0  0
  9 10  1  0  0  0  0
 10 11  4  0  0  0  0
 11 12  4  0  0  0  0
 12 13  4  0  0  0  0
 13 14  4  0  0  0  0
 10 15  4  0  0  0  0
 14 15  4  0  0  0  0
  7 16  4  0  0  0  0
 16 17  1  0  0  0  0
 17 18  2  0  0  0  0
 16 19  4  0  0  0  0
 18 20  1  0  0  0  0
 19 20  4  0  0  0  0
 20 21  4  0  0  0  0
 21 22  4  0  0  0  0
 22 23  4  0  0  0  0
 23 24  2  0  0  0  0
 24 25  4  0  0  0  0
 22 26  4  0  0  0  0
 25 26  4  0  0  0  0
 25 27  4  0  0  0  0
 27 28  1  0  0  0  0
 28 29  3  0  0  0  0
 29 30  1  0  0  0  0
 30 31  4  0  0  0  0
 31 32  4  0  0  0  0
 32 33  4  0  0  0  0
 33 34  4  0  0  0  0
 30 35  4  0  0  0  0
 34 35  4  0  0  0  0
 27 36  4  0  0  0  0
 36 37  1  0  0  0  0
 37 38  2  0  0  0  0
  1 39  4  0  0  0  0
 38 39  1  0  0  0  0
 36 40  4  0  0  0  0
 39 40  4  0  0  0  0
  1 41  1  0  0  0  0
  3 42  1  0  0  0  0
  4 43  1  0  0  0  0
  6 44  1  0  0  0  0
 11 45  1  0  0  0  0
 12 46  1  0  0  0  0
 14 47  1  0  0  0  0
 15 48  1  0  0  0  0
 17 49  1  0  0  0  0
 18 50  1  0  0  0  0
 23 51  1  0  0  0  0
 24 52  1  0  0  0  0
 26 53  1  0  0  0  0
 31 54  1  0  0  0  0
 32 55  1  0  0  0  0
 34 56  1  0  0  0  0
 35 57  1  0  0  0  0
 37 58  1  0  0  0  0
 38 59  1  0  0  0  0
 60 61  4  0  0  0  0
 61 62  4  0  0  0  0
 62 63  2  0  0  0  0
 63 64  4  0  0  0  0
 61 65  4  0  0  0  0
 64 65  4  0  0  0  0
 64 66  4  0  0  0  0
 66 67  1  0  0  0  0
 67 68  3  0  0  0  0
 68 69  1  0  0  0  0
 69 70  4  0  0  0  0
 70 71  4  0  0  0  0
 71 72  4  0  0  0  0
 72 73  4  0  0  0  0
 69 74  4  0  0  0  0
 73 74  4  0  0  0  0
 66 75  4  0  0  0  0
 75 76  1  0  0  0  0
 76 77  2  0  0  0  0
 75 78  4  0  0  0  0
 77 79  1  0  0  0  0
 78 79  4  0  0  0  0
 79 80  4  0  0  0  0
 80 81  4  0  0  0  0
 81 82  4  0  0  0  0
 82 83  2  0  0  0  0
 83 84  4  0  0  0  0
 81 85  4  0  0  0  0
 84 85  4  0  0  0  0
 84 86  4  0  0  0  0
 86 87  1  0  0  0  0
 87 88  3  0  0  0  0
 88 89  1  0  0  0  0
 89 90  4  0  0  0  0
 90 91  4  0  0  0  0
 91 92  4  0  0  0  0
 92 93  4  0  0  0  0
 89 94  4  0  0  0  0
 93 94  4  0  0  0  0
 86 95  4  0  0  0  0
 95 96  1  0  0  0  0
 96 97  2  0  0  0  0
 60 98  4  0  0  0  0
 97 98  1  0  0  0  0
 95 99  4  0  0  0  0
 98 99  4  0  0  0  0
 60100  1  0  0  0  0
 62101  1  0  0  0  0
 63102  1  0  0  0  0
 65103  1  0  0  0  0
 70104  1  0  0  0  0
 71105  1  0  0  0  0
 73106  1  0  0  0  0
 74107  1  0  0  0  0
 76108  1  0  0  0  0
 77109  1  0  0  0  0
 82110  1  0  0  0  0
 83111  1  0  0  0  0
 85112  1  0  0  0  0
 90113  1  0  0  0  0
 91114  1  0  0  0  0
 93115  1  0  0  0  0
 94116  1  0  0  0  0
 96117  1  0  0  0  0
 97118  1  0  0  0  0
 21119  1  0  0  0  0
119120  3  0  0  0  0
121122  3  0  0  0  0
 80124  4  0  0  0  0
123124  3  0  0  0  0
120125  4  0  0  0  0
125126  4  0  0  0  0
126127  4  0  0  0  0
127128  2  0  0  0  0
128129  4  0  0  0  0
126130  4  0  0  0  0
129130  4  0  0  0  0
129131  4  0  0  0  0
131132  1  0  0  0  0
132133  3  0  0  0  0
133134  1  0  0  0  0
134135  4  0  0  0  0
135136  4  0  0  0  0
136137  4  0  0  0  0
137138  4  0  0  0  0
134139  4  0  0  0  0
138139  4  0  0  0  0
131140  4  0  0  0  0
140141  1  0  0  0  0
141142  2  0  0  0  0
140143  4  0  0  0  0
142144  1  0  0  0  0
143144  4  0  0  0  0
121145  4  0  0  0  0
144145  4  0  0  0  0
145146  4  0  0  0  0
146147  4  0  0  0  0
147148  2  0  0  0  0
148149  4  0  0  0  0
146150  4  0  0  0  0
149150  4  0  0  0  0
149151  4  0  0  0  0
151152  1  0  0  0  0
152153  3  0  0  0  0
153154  1  0  0  0  0
154155  4  0  0  0  0
155156  4  0  0  0  0
156157  4  0  0  0  0
157158  4  0  0  0  0
154159  4  0  0  0  0
158159  4  0  0  0  0
151160  4  0  0  0  0
160161  1  0  0  0  0
161162  2  0  0  0  0
125163  4  0  0  0  0
162163  1  0  0  0  0
160164  4  0  0  0  0
163164  4  0  0  0  0
127165  1  0  0  0  0
128166  1  0  0  0  0
130167  1  0  0  0  0
135168  1  0  0  0  0
136169  1  0  0  0  0
138170  1  0  0  0  0
139171  1  0  0  0  0
141172  1  0  0  0  0
142173  1  0  0  0  0
147174  1  0  0  0  0
148175  1  0  0  0  0
150176  1  0  0  0  0
155177  1  0  0  0  0
156178  1  0  0  0  0
158179  1  0  0  0  0
159180  1  0  0  0  0
161181  1  0  0  0  0
162182  1  0  0  0  0
122183  4  0  0  0  0
183184  4  0  0  0  0
184185  4  0  0  0  0
185186  2  0  0  0  0
186187  4  0  0  0  0
184188  4  0  0  0  0
187188  4  0  0  0  0
187189  4  0  0  0  0
189190  1  0  0  0  0
190191  3  0  0  0  0
191192  1  0  0  0  0
192193  4  0  0  0  0
193194  4  0  0  0  0
194195  4  0  0  0  0
195196  4  0  0  0  0
192197  4  0  0  0  0
196197  4  0  0  0  0
189198  4  0  0  0  0
198199  1  0  0  0  0
199200  2  0  0  0  0
198201  4  0  0  0  0
200202  1  0  0  0  0
201202  4  0  0  0  0
123203  4  0  0  0  0
202203  4  0  0  0  0
203204  4  0  0  0  0
204205  4  0  0  0  0
205206  2  0  0  0  0
206207  4  0  0  0  0
204208  4  0  0  0  0
207208  4  0  0  0  0
207209  4  0  0  0  0
209210  1  0  0  0  0
210211  3  0  0  0  0
211212  1  0  0  0  0
212213  4  0  0  0  0
213214  4  0  0  0  0
214215  4  0  0  0  0
215216  4  0  0  0  0
212217  4  0  0  0  0
216217  4  0  0  0  0
209218  4  0  0  0  0
218219  1  0  0  0  0
219220  2  0  0  0  0
183221  4  0  0  0  0
220221  1  0  0  0  0
218222  4  0  0  0  0
221222  4  0  0  0  0
185223  1  0  0  0  0
186224  1  0  0  0  0
188225  1  0  0  0  0
193226  1  0  0  0  0
194227  1  0  0  0  0
196228  1  0  0  0  0
197229  1  0  0  0  0
199230  1  0  0  0  0
200231  1  0  0  0  0
205232  1  0  0  0  0
206233  1  0  0  0  0
208234  1  0  0  0  0
213235  1  0  0  0  0
214236  1  0  0  0  0
216237  1  0  0  0  0
217238  1  0  0  0  0
219239  1  0  0  0  0
220240  1  0  0  0  0
M  END
