520

C 99.399422 -0.017032 -0.014884
C 100.127377 1.358575 0.081092
C 99.519622 2.593101 0.062642
C 100.541981 3.562133 0.234881
C 101.739192 2.884456 0.360827
N 101.479919 1.545136 0.211465
C 103.160749 3.521069 0.652802
C 103.197523 4.935585 1.085344
C 103.484898 5.947360 0.170690
C 103.496441 7.254844 0.624408
N 103.242389 7.619345 1.903293
C 102.968185 6.610834 2.764308
C 102.932769 5.273062 2.411033
C 104.291959 2.772589 0.553789
C 105.596299 3.309721 0.884496
C 106.499165 2.350324 0.718654
N 104.488815 1.469054 0.182593
C 105.820489 1.153755 0.261754
C 106.488412 -0.001065 -0.000958
C 105.708948 -1.279583 -0.525083
C 106.243499 -2.312612 -1.269749
C 105.218033 -3.270099 -1.470295
C 104.083828 -2.789869 -0.850981
N 104.377600 -1.553310 -0.326750
C 102.677924 -3.518691 -0.773628
C 102.653413 -4.989336 -0.917928
C 103.050031 -5.804415 0.139861
C 103.024743 -7.175925 -0.046055
N 102.640423 -7.782649 -1.194013
C 102.262487 -6.960673 -2.200940
C 102.253474 -5.579243 -2.116110
C 101.551514 -2.791216 -0.558315
C 100.232301 -3.390949 -0.459350
C 99.345873 -2.419658 -0.261795
C 100.064640 -1.170221 -0.213991
N 101.384714 -1.445507 -0.388193
H 98.322713 -0.031101 0.105077
H 98.461372 2.774974 -0.045180
H 100.413123 4.632775 0.286954
H 102.180173 0.807542 0.202694
H 103.697126 5.704331 -0.864890
H 103.718907 8.070918 -0.055191
H 102.769275 6.914768 3.786785
H 102.708271 4.500372 3.138391
H 105.809900 4.308349 1.221543
H 107.552782 2.465776 0.896340
H 107.262042 -2.379583 -1.620931
H 105.300574 -4.206266 -2.001680
H 103.697890 -0.922059 0.089451
H 103.367300 -5.366542 1.080122
H 103.324964 -7.844504 0.754138
H 101.954598 -7.457682 -3.114974
H 101.940846 -4.961950 -2.951567
H 100.003523 -4.439078 -0.528850
H 98.283813 -2.538502 -0.145847
C 220.290998 0.019507 -0.006024
C 219.563043 -1.247295 -0.550743
C 220.170797 -2.336275 -1.132564
C 219.148438 -3.276582 -1.423275
C 217.951227 -2.731846 -1.000935
N 218.210501 -1.472851 -0.520294
C 216.529670 -3.431489 -1.032956
C 216.492897 -4.887029 -1.296306
C 216.205522 -5.367528 -2.572786
C 216.193978 -6.737620 -2.768289
N 216.448031 -7.647380 -1.798369
C 216.722235 -7.145216 -0.571066
C 216.757650 -5.794202 -0.272402
C 215.398461 -2.720780 -0.778166
C 214.094120 -3.349728 -0.730194
C 213.191255 -2.420916 -0.438209
N 215.201605 -1.391993 -0.511113
C 213.869930 -1.147965 -0.296335
C 213.202007 -0.001065 -0.000958
C 213.981472 1.375525 0.118690
C 213.446920 2.634897 -0.070147
C 214.472387 3.577905 0.190113
C 215.606592 2.867356 0.520704
N 215.312820 1.528017 0.420367
C 217.012496 3.479813 0.923271
C 217.037007 4.853231 1.468560
C 216.640388 5.093322 2.782191
C 216.665677 6.397676 3.245081
N 217.049997 7.462794 2.502488
C 217.427932 7.193278 1.230912
C 217.436946 5.926404 0.673617
C 218.138905 2.734510 0.781486
C 219.458118 3.222316 1.144142
C 220.344546 2.268406 0.874901
C 219.625779 1.135825 0.345147
N 218.305706 1.460326 0.316373
H 221.367707 -0.022929 0.107058
H 221.229048 -2.448569 -1.311711
H 219.277297 -4.252178 -1.867345
H 217.510247 -0.813149 -0.190268
H 215.993293 -4.677186 -3.382055
H 215.971513 -7.151809 -3.746184
H 216.921145 -7.883698 0.198661
H 216.982149 -5.440454 0.728079
H 213.880520 -4.391827 -0.887954
H 212.137637 -2.604929 -0.333134
H 212.428377 2.855274 -0.351656
H 214.389845 4.653487 0.146509
H 215.992530 0.776244 0.501231
H 216.323120 4.273430 3.417488
H 216.365456 6.625515 4.262625
H 217.735822 8.053726 0.646015
H 217.749574 5.760306 -0.351784
H 219.686896 4.185880 1.562409
H 221.406607 2.320948 1.032405
C 110.335458 0.011994 0.001660
C 109.083187 -0.007187 -0.002689
C 111.649126 0.011228 0.003592
C 113.152259 -0.007187 -0.002689
C 124.269268 0.011994 0.001660
C 123.016997 -0.007187 -0.002689
C 125.582936 0.011228 0.003592
C 127.086069 -0.007187 -0.002689
C 138.203077 0.011994 0.001660
C 136.950807 -0.007187 -0.002689
C 139.516746 0.011228 0.003592
C 141.019879 -0.007187 -0.002689
C 152.136887 0.011994 0.001660
C 150.884617 -0.007187 -0.002689
C 153.450556 0.011228 0.003592
C 154.953689 -0.007187 -0.002689
C 166.070697 0.011994 0.001660
C 164.818427 -0.007187 -0.002689
C 167.384365 0.011228 0.003592
C 168.887499 -0.007187 -0.002689
C 180.004507 0.011994 0.001660
C 178.752237 -0.007187 -0.002689
C 181.318175 0.011228 0.003592
C 182.821309 -0.007187 -0.002689
C 193.938317 0.011994 0.001660
C 192.686047 -0.007187 -0.002689
C 195.251985 0.011228 0.003592
C 196.755119 -0.007187 -0.002689
C 207.872127 0.011994 0.001660
C 206.619856 -0.007187 -0.002689
C 209.185795 0.011228 0.003592
C 210.688929 -0.007187 -0.002689
C 114.463777 0.000918 0.000506
C 115.259558 -1.244581 0.571618
C 114.759163 -2.239939 1.384137
C 115.797364 -3.185782 1.584882
C 116.900848 -2.735079 0.891304
N 116.585622 -1.517514 0.343992
C 118.289419 -3.480581 0.745318
C 118.282064 -4.957256 0.823419
C 118.699715 -5.608144 1.983565
C 118.658421 -6.991543 2.009495
N 118.233908 -7.759826 0.978895
C 117.834526 -7.094912 -0.131026
C 117.837852 -5.716097 -0.256924
C 119.425005 -2.771286 0.516090
C 120.712021 -3.407372 0.322192
C 121.620605 -2.459536 0.118207
N 119.633221 -1.425182 0.404411
C 120.958372 -1.172174 0.171073
C 121.622084 0.000918 0.000506
C 120.824964 1.367397 0.069518
C 121.317965 2.590767 0.473111
C 120.280128 3.542793 0.303539
C 119.184055 2.868485 -0.191275
N 119.502461 1.535446 -0.257921
C 117.798872 3.505465 -0.611370
C 117.810633 4.899020 -1.104660
C 117.414700 5.948263 -0.277452
C 117.457648 7.234745 -0.785913
N 117.863619 7.544794 -2.039018
C 118.242502 6.501655 -2.814376
C 118.236437 5.180790 -2.400720
C 116.662194 2.763898 -0.555929
C 115.376028 3.282453 -0.974034
C 114.466762 2.328156 -0.807842
C 115.127889 1.153206 -0.277115
N 116.452489 1.474890 -0.153005
H 113.755757 -2.292199 1.773955
H 115.740064 -4.099320 2.154336
H 117.244515 -0.892618 -0.113441
H 119.049483 -5.035585 2.836236
H 118.975968 -7.534512 2.892916
H 117.497254 -7.721198 -0.950831
H 117.506827 -5.230986 -1.168356
H 120.909208 -4.464621 0.329553
H 122.665611 -2.637805 -0.058157
H 122.317652 2.782804 0.830753
H 120.332883 4.602381 0.503052
H 118.848446 0.786357 -0.465109
H 117.079895 5.749779 0.734811
H 117.155562 8.078486 -0.174448
H 118.564570 6.762010 -3.816839
H 118.550639 4.379741 -3.060876
H 115.179787 4.266279 -1.361731
H 113.421677 2.428914 -1.037101
C 128.397587 0.000918 0.000506
C 129.193367 -1.244581 0.571618
C 128.692973 -2.239939 1.384137
C 129.731174 -3.185782 1.584882
C 130.834658 -2.735079 0.891304
N 130.519432 -1.517514 0.343992
C 132.223229 -3.480581 0.745318
C 132.215873 -4.957256 0.823419
C 132.633525 -5.608144 1.983565
C 132.592231 -6.991543 2.009495
N 132.167718 -7.759826 0.978895
C 131.768336 -7.094912 -0.131026
C 131.771662 -5.716097 -0.256924
C 133.358815 -2.771286 0.516090
C 134.645830 -3.407372 0.322192
C 135.554414 -2.459536 0.118207
N 133.567031 -1.425182 0.404411
C 134.892181 -1.172174 0.171073
C 135.555894 0.000918 0.000506
C 134.758774 1.367397 0.069518
C 135.251775 2.590767 0.473111
C 134.213937 3.542793 0.303539
C 133.117865 2.868485 -0.191275
N 133.436271 1.535446 -0.257921
C 131.732682 3.505465 -0.611370
C 131.744443 4.899020 -1.104660
C 131.348509 5.948263 -0.277452
C 131.391458 7.234745 -0.785913
N 131.797429 7.544794 -2.039018
C 132.176312 6.501655 -2.814376
C 132.170247 5.180790 -2.400720
C 130.596004 2.763898 -0.555929
C 129.309838 3.282453 -0.974034
C 128.400572 2.328156 -0.807842
C 129.061699 1.153206 -0.277115
N 130.386299 1.474890 -0.153005
H 127.689567 -2.292199 1.773955
H 129.673874 -4.099320 2.154336
H 131.178325 -0.892618 -0.113441
H 132.983293 -5.035585 2.836236
H 132.909777 -7.534512 2.892916
H 131.431064 -7.721198 -0.950831
H 131.440637 -5.230986 -1.168356
H 134.843018 -4.464621 0.329553
H 136.599420 -2.637805 -0.058157
H 136.251462 2.782804 0.830753
H 134.266693 4.602381 0.503052
H 132.782256 0.786357 -0.465109
H 131.013705 5.749779 0.734811
H 131.089372 8.078486 -0.174448
H 132.498379 6.762010 -3.816839
H 132.484449 4.379741 -3.060876
H 129.113597 4.266279 -1.361731
H 127.355486 2.428914 -1.037101
C 142.331397 0.000918 0.000506
C 143.127177 -1.244581 0.571618
C 142.626783 -2.239939 1.384137
C 143.664984 -3.185782 1.584882
C 144.768468 -2.735079 0.891304
N 144.453242 -1.517514 0.343992
C 146.157039 -3.480581 0.745318
C 146.149683 -4.957256 0.823419
C 146.567335 -5.608144 1.983565
C 146.526041 -6.991543 2.009495
N 146.101528 -7.759826 0.978895
C 145.702146 -7.094912 -0.131026
C 145.705472 -5.716097 -0.256924
C 147.292624 -2.771286 0.516090
C 148.579640 -3.407372 0.322192
C 149.488224 -2.459536 0.118207
N 147.500841 -1.425182 0.404411
C 148.825991 -1.172174 0.171073
C 149.489704 0.000918 0.000506
C 148.692584 1.367397 0.069518
C 149.185585 2.590767 0.473111
C 148.147747 3.542793 0.303539
C 147.051675 2.868485 -0.191275
N 147.370081 1.535446 -0.257921
C 145.666492 3.505465 -0.611370
C 145.678253 4.899020 -1.104660
C 145.282319 5.948263 -0.277452
C 145.325268 7.234745 -0.785913
N 145.731239 7.544794 -2.039018
C 146.110122 6.501655 -2.814376
C 146.104057 5.180790 -2.400720
C 144.529814 2.763898 -0.555929
C 143.243648 3.282453 -0.974034
C 142.334382 2.328156 -0.807842
C 142.995509 1.153206 -0.277115
N 144.320109 1.474890 -0.153005
H 141.623377 -2.292199 1.773955
H 143.607684 -4.099320 2.154336
H 145.112135 -0.892618 -0.113441
H 146.917103 -5.035585 2.836236
H 146.843587 -7.534512 2.892916
H 145.364874 -7.721198 -0.950831
H 145.374446 -5.230986 -1.168356
H 148.776828 -4.464621 0.329553
H 150.533230 -2.637805 -0.058157
H 150.185272 2.782804 0.830753
H 148.200503 4.602381 0.503052
H 146.716066 0.786357 -0.465109
H 144.947515 5.749779 0.734811
H 145.023182 8.078486 -0.174448
H 146.432189 6.762010 -3.816839
H 146.418259 4.379741 -3.060876
H 143.047407 4.266279 -1.361731
H 141.289296 2.428914 -1.037101
C 156.265206 0.000918 0.000506
C 157.060987 -1.244581 0.571618
C 156.560593 -2.239939 1.384137
C 157.598794 -3.185782 1.584882
C 158.702278 -2.735079 0.891304
N 158.387052 -1.517514 0.343992
C 160.090849 -3.480581 0.745318
C 160.083493 -4.957256 0.823419
C 160.501145 -5.608144 1.983565
C 160.459851 -6.991543 2.009495
N 160.035338 -7.759826 0.978895
C 159.635956 -7.094912 -0.131026
C 159.639282 -5.716097 -0.256924
C 161.226434 -2.771286 0.516090
C 162.513450 -3.407372 0.322192
C 163.422034 -2.459536 0.118207
N 161.434651 -1.425182 0.404411
C 162.759801 -1.172174 0.171073
C 163.423514 0.000918 0.000506
C 162.626394 1.367397 0.069518
C 163.119395 2.590767 0.473111
C 162.081557 3.542793 0.303539
C 160.985485 2.868485 -0.191275
N 161.303891 1.535446 -0.257921
C 159.600302 3.505465 -0.611370
C 159.612063 4.899020 -1.104660
C 159.216129 5.948263 -0.277452
C 159.259078 7.234745 -0.785913
N 159.665048 7.544794 -2.039018
C 160.043932 6.501655 -2.814376
C 160.037867 5.180790 -2.400720
C 158.463623 2.763898 -0.555929
C 157.177458 3.282453 -0.974034
C 156.268192 2.328156 -0.807842
C 156.929319 1.153206 -0.277115
N 158.253919 1.474890 -0.153005
H 155.557187 -2.292199 1.773955
H 157.541494 -4.099320 2.154336
H 159.045945 -0.892618 -0.113441
H 160.850913 -5.035585 2.836236
H 160.777397 -7.534512 2.892916
H 159.298683 -7.721198 -0.950831
H 159.308256 -5.230986 -1.168356
H 162.710638 -4.464621 0.329553
H 164.467040 -2.637805 -0.058157
H 164.119082 2.782804 0.830753
H 162.134313 4.602381 0.503052
H 160.649876 0.786357 -0.465109
H 158.881325 5.749779 0.734811
H 158.956992 8.078486 -0.174448
H 160.365999 6.762010 -3.816839
H 160.352069 4.379741 -3.060876
H 156.981217 4.266279 -1.361731
H 155.223106 2.428914 -1.037101
C 170.199016 0.000918 0.000506
C 170.994797 -1.244581 0.571618
C 170.494403 -2.239939 1.384137
C 171.532604 -3.185782 1.584882
C 172.636088 -2.735079 0.891304
N 172.320862 -1.517514 0.343992
C 174.024659 -3.480581 0.745318
C 174.017303 -4.957256 0.823419
C 174.434955 -5.608144 1.983565
C 174.393661 -6.991543 2.009495
N 173.969148 -7.759826 0.978895
C 173.569766 -7.094912 -0.131026
C 173.573092 -5.716097 -0.256924
C 175.160244 -2.771286 0.516090
C 176.447260 -3.407372 0.322192
C 177.355844 -2.459536 0.118207
N 175.368461 -1.425182 0.404411
C 176.693611 -1.172174 0.171073
C 177.357324 0.000918 0.000506
C 176.560204 1.367397 0.069518
C 177.053205 2.590767 0.473111
C 176.015367 3.542793 0.303539
C 174.919295 2.868485 -0.191275
N 175.237700 1.535446 -0.257921
C 173.534112 3.505465 -0.611370
C 173.545873 4.899020 -1.104660
C 173.149939 5.948263 -0.277452
C 173.192888 7.234745 -0.785913
N 173.598858 7.544794 -2.039018
C 173.977742 6.501655 -2.814376
C 173.971676 5.180790 -2.400720
C 172.397433 2.763898 -0.555929
C 171.111268 3.282453 -0.974034
C 170.202002 2.328156 -0.807842
C 170.863128 1.153206 -0.277115
N 172.187729 1.474890 -0.153005
H 169.490997 -2.292199 1.773955
H 171.475304 -4.099320 2.154336
H 172.979754 -0.892618 -0.113441
H 174.784723 -5.035585 2.836236
H 174.711207 -7.534512 2.892916
H 173.232493 -7.721198 -0.950831
H 173.242066 -5.230986 -1.168356
H 176.644448 -4.464621 0.329553
H 178.400850 -2.637805 -0.058157
H 178.052892 2.782804 0.830753
H 176.068122 4.602381 0.503052
H 174.583686 0.786357 -0.465109
H 172.815135 5.749779 0.734811
H 172.890802 8.078486 -0.174448
H 174.299809 6.762010 -3.816839
H 174.285879 4.379741 -3.060876
H 170.915026 4.266279 -1.361731
H 169.156916 2.428914 -1.037101
C 184.132826 0.000918 0.000506
C 184.928607 -1.244581 0.571618
C 184.428212 -2.239939 1.384137
C 185.466414 -3.185782 1.584882
C 186.569898 -2.735079 0.891304
N 186.254672 -1.517514 0.343992
C 187.958469 -3.480581 0.745318
C 187.951113 -4.957256 0.823419
C 188.368765 -5.608144 1.983565
C 188.327470 -6.991543 2.009495
N 187.902958 -7.759826 0.978895
C 187.503576 -7.094912 -0.131026
C 187.506901 -5.716097 -0.256924
C 189.094054 -2.771286 0.516090
C 190.381070 -3.407372 0.322192
C 191.289654 -2.459536 0.118207
N 189.302271 -1.425182 0.404411
C 190.627421 -1.172174 0.171073
C 191.291134 0.000918 0.000506
C 190.494014 1.367397 0.069518
C 190.987015 2.590767 0.473111
C 189.949177 3.542793 0.303539
C 188.853105 2.868485 -0.191275
N 189.171510 1.535446 -0.257921
C 187.467921 3.505465 -0.611370
C 187.479683 4.899020 -1.104660
C 187.083749 5.948263 -0.277452
C 187.126698 7.234745 -0.785913
N 187.532668 7.544794 -2.039018
C 187.911552 6.501655 -2.814376
C 187.905486 5.180790 -2.400720
C 186.331243 2.763898 -0.555929
C 185.045078 3.282453 -0.974034
C 184.135812 2.328156 -0.807842
C 184.796938 1.153206 -0.277115
N 186.121539 1.474890 -0.153005
H 183.424807 -2.292199 1.773955
H 185.409114 -4.099320 2.154336
H 186.913564 -0.892618 -0.113441
H 188.718533 -5.035585 2.836236
H 188.645017 -7.534512 2.892916
H 187.166303 -7.721198 -0.950831
H 187.175876 -5.230986 -1.168356
H 190.578258 -4.464621 0.329553
H 192.334660 -2.637805 -0.058157
H 191.986701 2.782804 0.830753
H 190.001932 4.602381 0.503052
H 188.517495 0.786357 -0.465109
H 186.748945 5.749779 0.734811
H 186.824612 8.078486 -0.174448
H 188.233619 6.762010 -3.816839
H 188.219689 4.379741 -3.060876
H 184.848836 4.266279 -1.361731
H 183.090726 2.428914 -1.037101
C 198.066636 0.000918 0.000506
C 198.862417 -1.244581 0.571618
C 198.362022 -2.239939 1.384137
C 199.400224 -3.185782 1.584882
C 200.503708 -2.735079 0.891304
N 200.188482 -1.517514 0.343992
C 201.892279 -3.480581 0.745318
C 201.884923 -4.957256 0.823419
C 202.302575 -5.608144 1.983565
C 202.261280 -6.991543 2.009495
N 201.836768 -7.759826 0.978895
C 201.437386 -7.094912 -0.131026
C 201.440711 -5.716097 -0.256924
C 203.027864 -2.771286 0.516090
C 204.314880 -3.407372 0.322192
C 205.223464 -2.459536 0.118207
N 203.236081 -1.425182 0.404411
C 204.561231 -1.172174 0.171073
C 205.224943 0.000918 0.000506
C 204.427824 1.367397 0.069518
C 204.920824 2.590767 0.473111
C 203.882987 3.542793 0.303539
C 202.786915 2.868485 -0.191275
N 203.105320 1.535446 -0.257921
C 201.401731 3.505465 -0.611370
C 201.413492 4.899020 -1.104660
C 201.017559 5.948263 -0.277452
C 201.060508 7.234745 -0.785913
N 201.466478 7.544794 -2.039018
C 201.845362 6.501655 -2.814376
C 201.839296 5.180790 -2.400720
C 200.265053 2.763898 -0.555929
C 198.978887 3.282453 -0.974034
C 198.069622 2.328156 -0.807842
C 198.730748 1.153206 -0.277115
N 200.055349 1.474890 -0.153005
H 197.358617 -2.292199 1.773955
H 199.342924 -4.099320 2.154336
H 200.847374 -0.892618 -0.113441
H 202.652343 -5.035585 2.836236
H 202.578827 -7.534512 2.892916
H 201.100113 -7.721198 -0.950831
H 201.109686 -5.230986 -1.168356
H 204.512068 -4.464621 0.329553
H 206.268470 -2.637805 -0.058157
H 205.920511 2.782804 0.830753
H 203.935742 4.602381 0.503052
H 202.451305 0.786357 -0.465109
H 200.682754 5.749779 0.734811
H 200.758421 8.078486 -0.174448
H 202.167429 6.762010 -3.816839
H 202.153499 4.379741 -3.060876
H 198.782646 4.266279 -1.361731
H 197.024536 2.428914 -1.037101
