638

C 143.867153 0.015327 -0.124009
C 144.601909 -1.266910 -0.621496
C 144.006825 -2.359882 -1.208301
C 145.032284 -3.310273 -1.452610
C 146.218451 -2.765865 -0.999614
N 145.951962 -1.497889 -0.547904
C 147.636252 -3.472866 -0.975186
C 147.665441 -4.943684 -1.143573
C 147.959327 -5.514779 -2.389093
C 147.974931 -6.902823 -2.540629
C 147.694882 -7.718493 -1.440987
C 147.706111 -9.188747 -1.577518
O 147.944128 -9.762262 -2.634211
C 147.400199 -7.159419 -0.193548
C 147.385557 -5.771863 -0.049066
C 148.766182 -2.755761 -0.732914
C 150.066989 -3.386266 -0.637743
C 150.968251 -2.449350 -0.367285
N 148.963756 -1.417627 -0.517387
C 150.291628 -1.170128 -0.283699
C 150.957322 -0.016032 -0.012411
C 150.179219 1.365336 0.053690
C 150.721320 2.617912 -0.157515
C 149.694757 3.570251 0.060050
C 148.551523 2.871930 0.386010
N 148.843000 1.529279 0.327215
C 147.139150 3.498084 0.742061
C 147.098988 4.904021 1.198823
C 147.395843 5.227524 2.528592
C 147.367383 6.558152 2.952459
C 147.043435 7.565412 2.039430
C 147.009261 8.979107 2.464433
O 147.248583 9.341450 3.610659
C 146.746185 7.254419 0.708586
C 146.775547 5.923281 0.292021
C 146.014386 2.747813 0.614105
C 144.689734 3.255448 0.925888
C 143.805195 2.294239 0.677248
C 144.529915 1.138939 0.208339
N 145.852410 1.454992 0.202075
H 142.787672 -0.018631 -0.037156
H 142.954342 -2.468153 -1.421249
H 144.913149 -4.291179 -1.887306
H 146.646184 -0.834210 -0.212683
H 148.178981 -4.862940 -3.232511
H 148.206445 -7.335812 -3.509661
H 147.483310 -9.760586 -0.661342
H 147.181959 -7.779088 0.669932
H 147.160322 -5.315707 0.913219
H 150.279555 -4.433705 -0.755019
H 152.019523 -2.631728 -0.239092
H 151.745768 2.828033 -0.424931
H 149.782758 4.643840 -0.008863
H 148.159790 0.781594 0.417275
H 147.645698 4.430055 3.225763
H 147.597377 6.798006 3.986547
H 146.752255 9.712729 1.681662
H 146.491118 8.024958 -0.012192
H 146.544538 5.657877 -0.738592
H 144.457641 4.237171 1.297266
H 142.740320 2.357556 0.806856
C 269.575072 0.019781 -0.122660
C 268.840316 1.362619 0.174682
C 269.435400 2.597525 0.292720
C 268.409941 3.523813 0.616638
C 267.223774 2.819560 0.691560
N 267.490263 1.513981 0.364040
C 265.805973 3.394264 1.104067
C 265.776783 4.711453 1.779843
C 265.482898 5.877534 1.060310
C 265.467294 7.116504 1.704191
C 265.747343 7.185191 3.071602
C 265.736114 8.484240 3.773570
O 265.498097 9.547589 3.212492
C 266.042026 6.028048 3.799399
C 266.056668 4.793397 3.149920
C 264.676043 2.663210 0.907861
C 263.375236 3.135025 1.336796
C 262.473974 2.205446 1.042110
N 264.478469 1.430271 0.344910
C 263.150597 1.094712 0.402057
C 262.484903 -0.016032 -0.012411
C 263.263006 -1.202055 -0.723674
C 262.720905 -2.127093 -1.594224
C 263.747468 -3.040166 -1.941475
C 264.890701 -2.639947 -1.282895
N 264.599225 -1.490191 -0.587030
C 266.303075 -3.358439 -1.333980
C 266.343237 -4.781610 -1.733826
C 266.046382 -5.788417 -0.806853
C 266.074842 -7.130680 -1.192293
C 266.398790 -7.462295 -2.510711
C 266.432964 -8.874304 -2.941284
O 266.193642 -9.811613 -2.188571
C 266.696040 -6.465300 -3.445518
C 266.666678 -5.126663 -3.053719
C 267.427839 -2.663203 -1.024261
C 268.752490 -3.258527 -1.046436
C 269.637030 -2.320837 -0.720121
C 268.912310 -1.099469 -0.469413
N 267.589815 -1.358964 -0.649944
H 270.654553 -0.000143 -0.031559
H 270.487883 2.805737 0.175597
H 268.529076 4.581099 0.799072
H 266.796041 0.775821 0.274808
H 265.263244 5.803030 -0.003032
H 265.235780 8.014302 1.138100
H 265.958915 8.451821 4.853073
H 266.260266 6.064657 4.861588
H 266.281903 3.880065 3.697546
H 263.162670 4.071593 1.820244
H 261.422702 2.286082 1.249939
H 261.696457 -2.153584 -1.933282
H 263.659467 -3.895210 -2.594346
H 265.282435 -0.918042 -0.097346
H 265.796527 -5.511618 0.215589
H 265.844848 -7.903870 -0.464938
H 266.689970 -9.050495 -3.999532
H 266.951107 -6.706597 -4.472664
H 266.897686 -4.334143 -3.764011
H 268.984584 -4.281370 -1.282007
H 270.701905 -2.445414 -0.647404
C 154.085278 -0.003595 -0.009970
C 152.833007 -0.022776 -0.014318
C 155.398946 -0.004361 -0.008037
C 156.902080 -0.022776 -0.014318
C 167.059921 -0.003595 -0.009970
C 165.807650 -0.022776 -0.014318
C 168.373589 -0.004361 -0.008037
C 169.876723 -0.022776 -0.014318
C 180.034564 -0.003595 -0.009970
C 178.782293 -0.022776 -0.014318
C 181.348232 -0.004361 -0.008037
C 182.851366 -0.022776 -0.014318
C 193.009207 -0.003595 -0.009970
C 191.756936 -0.022776 -0.014318
C 194.322875 -0.004361 -0.008037
C 195.826009 -0.022776 -0.014318
C 205.983850 -0.003595 -0.009970
C 204.731579 -0.022776 -0.014318
C 207.297518 -0.004361 -0.008037
C 208.800652 -0.022776 -0.014318
C 218.958493 -0.003595 -0.009970
C 217.706222 -0.022776 -0.014318
C 220.272161 -0.004361 -0.008037
C 221.775295 -0.022776 -0.014318
C 231.933136 -0.003595 -0.009970
C 230.680865 -0.022776 -0.014318
C 233.246804 -0.004361 -0.008037
C 234.749938 -0.022776 -0.014318
C 244.907779 -0.003595 -0.009970
C 243.655508 -0.022776 -0.014318
C 246.221447 -0.004361 -0.008037
C 247.724581 -0.022776 -0.014318
C 257.882422 -0.003595 -0.009970
C 256.630151 -0.022776 -0.014318
C 259.196090 -0.004361 -0.008037
C 260.699224 -0.022776 -0.014318
C 157.712562 0.005783 0.004228
C 158.497270 0.875174 -1.062666
C 157.955737 1.472010 -2.176009
C 158.994785 2.169483 -2.838414
C 160.145969 1.973932 -2.114503
N 159.844211 1.147700 -1.057995
C 161.564320 2.590435 -2.450508
C 161.601995 3.770967 -3.349538
C 161.826982 3.615686 -4.722534
C 161.869677 4.730235 -5.563884
C 161.682101 6.005451 -5.027738
C 161.725110 7.198737 -5.897616
O 161.886406 7.136772 -7.110881
C 161.450367 6.174171 -3.660060
C 161.410781 5.055661 -2.824697
C 162.695159 2.070248 -1.903677
C 164.001377 2.620078 -2.198184
C 164.912876 1.917755 -1.535698
N 162.894331 1.027458 -1.037248
C 164.234748 0.884739 -0.778186
C 164.916842 0.005783 0.004228
C 164.140742 -1.103200 0.839715
C 164.719886 -2.115382 1.583195
C 163.678691 -2.840193 2.207534
C 162.486412 -2.252152 1.830252
N 162.775568 -1.216816 0.971124
C 161.052420 -2.685759 2.337922
C 160.989549 -3.782021 3.332074
C 160.865326 -5.104324 2.885121
C 160.832514 -6.153243 3.802678
C 160.910104 -5.872918 5.171843
C 160.863713 -6.997322 6.126425
O 160.932042 -6.847221 7.340229
C 161.024392 -4.557232 5.629464
C 161.069108 -3.511773 4.705112
C 159.923596 -2.092570 1.873109
C 158.615594 -2.456975 2.376033
C 157.708363 -1.709714 1.761579
C 158.388118 -0.850956 0.813978
N 159.727418 -1.116462 0.936087
H 156.924475 1.418540 -2.480599
H 158.909047 2.751814 -3.741140
H 160.516866 0.760148 -0.406945
H 161.975724 2.617479 -5.123177
H 162.052303 4.596574 -6.625127
H 161.596830 8.172853 -5.394387
H 161.300024 7.158132 -3.229561
H 161.237452 5.167491 -1.755101
H 164.213842 3.451685 -2.844330
H 165.969806 2.104307 -1.573496
H 165.776056 -2.307258 1.687413
H 163.790670 -3.684862 2.874935
H 162.086703 -0.619039 0.518050
H 160.794578 -5.294496 1.814300
H 160.747130 -7.170103 3.433274
H 160.762522 -8.002670 5.684756
H 161.079878 -4.340697 6.693055
H 161.162206 -2.481027 5.037824
H 158.403061 -3.196304 3.126848
H 156.651083 -1.761636 1.943876
C 170.687205 0.005783 0.004228
C 171.471913 0.875174 -1.062666
C 170.930380 1.472010 -2.176009
C 171.969428 2.169483 -2.838414
C 173.120612 1.973932 -2.114503
N 172.818854 1.147700 -1.057995
C 174.538963 2.590435 -2.450508
C 174.576638 3.770967 -3.349538
C 174.801625 3.615686 -4.722534
C 174.844320 4.730235 -5.563884
C 174.656744 6.005451 -5.027738
C 174.699753 7.198737 -5.897616
O 174.861049 7.136772 -7.110881
C 174.425011 6.174171 -3.660060
C 174.385424 5.055661 -2.824697
C 175.669802 2.070248 -1.903677
C 176.976020 2.620078 -2.198184
C 177.887519 1.917755 -1.535698
N 175.868974 1.027458 -1.037248
C 177.209391 0.884739 -0.778186
C 177.891485 0.005783 0.004228
C 177.115385 -1.103200 0.839715
C 177.694529 -2.115382 1.583195
C 176.653334 -2.840193 2.207534
C 175.461055 -2.252152 1.830252
N 175.750211 -1.216816 0.971124
C 174.027063 -2.685759 2.337922
C 173.964192 -3.782021 3.332074
C 173.839969 -5.104324 2.885121
C 173.807157 -6.153243 3.802678
C 173.884747 -5.872918 5.171843
C 173.838356 -6.997322 6.126425
O 173.906685 -6.847221 7.340229
C 173.999035 -4.557232 5.629464
C 174.043751 -3.511773 4.705112
C 172.898239 -2.092570 1.873109
C 171.590237 -2.456975 2.376033
C 170.683006 -1.709714 1.761579
C 171.362761 -0.850956 0.813978
N 172.702061 -1.116462 0.936087
H 169.899118 1.418540 -2.480599
H 171.883690 2.751814 -3.741140
H 173.491509 0.760148 -0.406945
H 174.950368 2.617479 -5.123177
H 175.026946 4.596574 -6.625127
H 174.571473 8.172853 -5.394387
H 174.274667 7.158132 -3.229561
H 174.212095 5.167491 -1.755101
H 177.188485 3.451685 -2.844330
H 178.944449 2.104307 -1.573496
H 178.750699 -2.307258 1.687413
H 176.765313 -3.684862 2.874935
H 175.061346 -0.619039 0.518050
H 173.769221 -5.294496 1.814300
H 173.721773 -7.170103 3.433274
H 173.737165 -8.002670 5.684756
H 174.054521 -4.340697 6.693055
H 174.136849 -2.481027 5.037824
H 171.377704 -3.196304 3.126848
H 169.625726 -1.761636 1.943876
C 183.661848 0.005783 0.004228
C 184.446557 0.875174 -1.062666
C 183.905023 1.472010 -2.176009
C 184.944071 2.169483 -2.838414
C 186.095255 1.973932 -2.114503
N 185.793497 1.147700 -1.057995
C 187.513606 2.590435 -2.450508
C 187.551281 3.770967 -3.349538
C 187.776268 3.615686 -4.722534
C 187.818963 4.730235 -5.563884
C 187.631387 6.005451 -5.027738
C 187.674396 7.198737 -5.897616
O 187.835692 7.136772 -7.110881
C 187.399654 6.174171 -3.660060
C 187.360068 5.055661 -2.824697
C 188.644445 2.070248 -1.903677
C 189.950663 2.620078 -2.198184
C 190.862162 1.917755 -1.535698
N 188.843617 1.027458 -1.037248
C 190.184034 0.884739 -0.778186
C 190.866128 0.005783 0.004228
C 190.090028 -1.103200 0.839715
C 190.669172 -2.115382 1.583195
C 189.627977 -2.840193 2.207534
C 188.435698 -2.252152 1.830252
N 188.724854 -1.216816 0.971124
C 187.001706 -2.685759 2.337922
C 186.938835 -3.782021 3.332074
C 186.814612 -5.104324 2.885121
C 186.781800 -6.153243 3.802678
C 186.859390 -5.872918 5.171843
C 186.812999 -6.997322 6.126425
O 186.881328 -6.847221 7.340229
C 186.973678 -4.557232 5.629464
C 187.018394 -3.511773 4.705112
C 185.872882 -2.092570 1.873109
C 184.564880 -2.456975 2.376033
C 183.657649 -1.709714 1.761579
C 184.337404 -0.850956 0.813978
N 185.676704 -1.116462 0.936087
H 182.873761 1.418540 -2.480599
H 184.858333 2.751814 -3.741140
H 186.466152 0.760148 -0.406945
H 187.925011 2.617479 -5.123177
H 188.001589 4.596574 -6.625127
H 187.546116 8.172853 -5.394387
H 187.249310 7.158132 -3.229561
H 187.186738 5.167491 -1.755101
H 190.163128 3.451685 -2.844330
H 191.919092 2.104307 -1.573496
H 191.725342 -2.307258 1.687413
H 189.739956 -3.684862 2.874935
H 188.035989 -0.619039 0.518050
H 186.743864 -5.294496 1.814300
H 186.696416 -7.170103 3.433274
H 186.711808 -8.002670 5.684756
H 187.029164 -4.340697 6.693055
H 187.111492 -2.481027 5.037824
H 184.352347 -3.196304 3.126848
H 182.600369 -1.761636 1.943876
C 196.636491 0.005783 0.004228
C 197.421200 0.875174 -1.062666
C 196.879666 1.472010 -2.176009
C 197.918714 2.169483 -2.838414
C 199.069898 1.973932 -2.114503
N 198.768140 1.147700 -1.057995
C 200.488249 2.590435 -2.450508
C 200.525924 3.770967 -3.349538
C 200.750911 3.615686 -4.722534
C 200.793606 4.730235 -5.563884
C 200.606030 6.005451 -5.027738
C 200.649039 7.198737 -5.897616
O 200.810335 7.136772 -7.110881
C 200.374297 6.174171 -3.660060
C 200.334711 5.055661 -2.824697
C 201.619088 2.070248 -1.903677
C 202.925306 2.620078 -2.198184
C 203.836805 1.917755 -1.535698
N 201.818260 1.027458 -1.037248
C 203.158677 0.884739 -0.778186
C 203.840771 0.005783 0.004228
C 203.064671 -1.103200 0.839715
C 203.643815 -2.115382 1.583195
C 202.602620 -2.840193 2.207534
C 201.410341 -2.252152 1.830252
N 201.699497 -1.216816 0.971124
C 199.976349 -2.685759 2.337922
C 199.913478 -3.782021 3.332074
C 199.789255 -5.104324 2.885121
C 199.756443 -6.153243 3.802678
C 199.834033 -5.872918 5.171843
C 199.787642 -6.997322 6.126425
O 199.855971 -6.847221 7.340229
C 199.948321 -4.557232 5.629464
C 199.993037 -3.511773 4.705112
C 198.847526 -2.092570 1.873109
C 197.539523 -2.456975 2.376033
C 196.632292 -1.709714 1.761579
C 197.312047 -0.850956 0.813978
N 198.651347 -1.116462 0.936087
H 195.848404 1.418540 -2.480599
H 197.832976 2.751814 -3.741140
H 199.440795 0.760148 -0.406945
H 200.899654 2.617479 -5.123177
H 200.976232 4.596574 -6.625127
H 200.520759 8.172853 -5.394387
H 200.223953 7.158132 -3.229561
H 200.161381 5.167491 -1.755101
H 203.137771 3.451685 -2.844330
H 204.893735 2.104307 -1.573496
H 204.699985 -2.307258 1.687413
H 202.714599 -3.684862 2.874935
H 201.010632 -0.619039 0.518050
H 199.718507 -5.294496 1.814300
H 199.671059 -7.170103 3.433274
H 199.686451 -8.002670 5.684756
H 200.003807 -4.340697 6.693055
H 200.086135 -2.481027 5.037824
H 197.326990 -3.196304 3.126848
H 195.575012 -1.761636 1.943876
C 209.611134 0.005783 0.004228
C 210.395843 0.875174 -1.062666
C 209.854309 1.472010 -2.176009
C 210.893357 2.169483 -2.838414
C 212.044541 1.973932 -2.114503
N 211.742783 1.147700 -1.057995
C 213.462892 2.590435 -2.450508
C 213.500567 3.770967 -3.349538
C 213.725554 3.615686 -4.722534
C 213.768249 4.730235 -5.563884
C 213.580673 6.005451 -5.027738
C 213.623682 7.198737 -5.897616
O 213.784978 7.136772 -7.110881
C 213.348940 6.174171 -3.660060
C 213.309354 5.055661 -2.824697
C 214.593731 2.070248 -1.903677
C 215.899949 2.620078 -2.198184
C 216.811448 1.917755 -1.535698
N 214.792903 1.027458 -1.037248
C 216.133320 0.884739 -0.778186
C 216.815414 0.005783 0.004228
C 216.039314 -1.103200 0.839715
C 216.618458 -2.115382 1.583195
C 215.577263 -2.840193 2.207534
C 214.384984 -2.252152 1.830252
N 214.674140 -1.216816 0.971124
C 212.950992 -2.685759 2.337922
C 212.888121 -3.782021 3.332074
C 212.763898 -5.104324 2.885121
C 212.731086 -6.153243 3.802678
C 212.808676 -5.872918 5.171843
C 212.762285 -6.997322 6.126425
O 212.830614 -6.847221 7.340229
C 212.922964 -4.557232 5.629464
C 212.967680 -3.511773 4.705112
C 211.822169 -2.092570 1.873109
C 210.514166 -2.456975 2.376033
C 209.606935 -1.709714 1.761579
C 210.286690 -0.850956 0.813978
N 211.625990 -1.116462 0.936087
H 208.823047 1.418540 -2.480599
H 210.807619 2.751814 -3.741140
H 212.415438 0.760148 -0.406945
H 213.874297 2.617479 -5.123177
H 213.950875 4.596574 -6.625127
H 213.495402 8.172853 -5.394387
H 213.198596 7.158132 -3.229561
H 213.136024 5.167491 -1.755101
H 216.112414 3.451685 -2.844330
H 217.868378 2.104307 -1.573496
H 217.674628 -2.307258 1.687413
H 215.689242 -3.684862 2.874935
H 213.985275 -0.619039 0.518050
H 212.693150 -5.294496 1.814300
H 212.645702 -7.170103 3.433274
H 212.661094 -8.002670 5.684756
H 212.978450 -4.340697 6.693055
H 213.060778 -2.481027 5.037824
H 210.301633 -3.196304 3.126848
H 208.549655 -1.761636 1.943876
C 222.585777 0.005783 0.004228
C 223.370486 0.875174 -1.062666
C 222.828952 1.472010 -2.176009
C 223.868000 2.169483 -2.838414
C 225.019184 1.973932 -2.114503
N 224.717426 1.147700 -1.057995
C 226.437535 2.590435 -2.450508
C 226.475210 3.770967 -3.349538
C 226.700197 3.615686 -4.722534
C 226.742892 4.730235 -5.563884
C 226.555316 6.005451 -5.027738
C 226.598325 7.198737 -5.897616
O 226.759621 7.136772 -7.110881
C 226.323583 6.174171 -3.660060
C 226.283997 5.055661 -2.824697
C 227.568374 2.070248 -1.903677
C 228.874592 2.620078 -2.198184
C 229.786091 1.917755 -1.535698
N 227.767546 1.027458 -1.037248
C 229.107963 0.884739 -0.778186
C 229.790057 0.005783 0.004228
C 229.013957 -1.103200 0.839715
C 229.593101 -2.115382 1.583195
C 228.551906 -2.840193 2.207534
C 227.359627 -2.252152 1.830252
N 227.648783 -1.216816 0.971124
C 225.925635 -2.685759 2.337922
C 225.862764 -3.782021 3.332074
C 225.738541 -5.104324 2.885121
C 225.705729 -6.153243 3.802678
C 225.783319 -5.872918 5.171843
C 225.736928 -6.997322 6.126425
O 225.805257 -6.847221 7.340229
C 225.897607 -4.557232 5.629464
C 225.942323 -3.511773 4.705112
C 224.796812 -2.092570 1.873109
C 223.488809 -2.456975 2.376033
C 222.581578 -1.709714 1.761579
C 223.261333 -0.850956 0.813978
N 224.600633 -1.116462 0.936087
H 221.797690 1.418540 -2.480599
H 223.782262 2.751814 -3.741140
H 225.390081 0.760148 -0.406945
H 226.848940 2.617479 -5.123177
H 226.925518 4.596574 -6.625127
H 226.470045 8.172853 -5.394387
H 226.173239 7.158132 -3.229561
H 226.110667 5.167491 -1.755101
H 229.087057 3.451685 -2.844330
H 230.843021 2.104307 -1.573496
H 230.649271 -2.307258 1.687413
H 228.663885 -3.684862 2.874935
H 226.959918 -0.619039 0.518050
H 225.667793 -5.294496 1.814300
H 225.620345 -7.170103 3.433274
H 225.635737 -8.002670 5.684756
H 225.953093 -4.340697 6.693055
H 226.035421 -2.481027 5.037824
H 223.276276 -3.196304 3.126848
H 221.524298 -1.761636 1.943876
C 235.560420 0.005783 0.004228
C 236.345129 0.875174 -1.062666
C 235.803595 1.472010 -2.176009
C 236.842643 2.169483 -2.838414
C 237.993827 1.973932 -2.114503
N 237.692069 1.147700 -1.057995
C 239.412178 2.590435 -2.450508
C 239.449853 3.770967 -3.349538
C 239.674840 3.615686 -4.722534
C 239.717535 4.730235 -5.563884
C 239.529959 6.005451 -5.027738
C 239.572968 7.198737 -5.897616
O 239.734264 7.136772 -7.110881
C 239.298226 6.174171 -3.660060
C 239.258640 5.055661 -2.824697
C 240.543017 2.070248 -1.903677
C 241.849235 2.620078 -2.198184
C 242.760734 1.917755 -1.535698
N 240.742189 1.027458 -1.037248
C 242.082606 0.884739 -0.778186
C 242.764700 0.005783 0.004228
C 241.988600 -1.103200 0.839715
C 242.567744 -2.115382 1.583195
C 241.526549 -2.840193 2.207534
C 240.334270 -2.252152 1.830252
N 240.623426 -1.216816 0.971124
C 238.900278 -2.685759 2.337922
C 238.837407 -3.782021 3.332074
C 238.713184 -5.104324 2.885121
C 238.680372 -6.153243 3.802678
C 238.757962 -5.872918 5.171843
C 238.711571 -6.997322 6.126425
O 238.779900 -6.847221 7.340229
C 238.872250 -4.557232 5.629464
C 238.916966 -3.511773 4.705112
C 237.771455 -2.092570 1.873109
C 236.463452 -2.456975 2.376033
C 235.556221 -1.709714 1.761579
C 236.235976 -0.850956 0.813978
N 237.575276 -1.116462 0.936087
H 234.772333 1.418540 -2.480599
H 236.756905 2.751814 -3.741140
H 238.364724 0.760148 -0.406945
H 239.823583 2.617479 -5.123177
H 239.900161 4.596574 -6.625127
H 239.444688 8.172853 -5.394387
H 239.147882 7.158132 -3.229561
H 239.085310 5.167491 -1.755101
H 242.061700 3.451685 -2.844330
H 243.817664 2.104307 -1.573496
H 243.623914 -2.307258 1.687413
H 241.638528 -3.684862 2.874935
H 239.934561 -0.619039 0.518050
H 238.642436 -5.294496 1.814300
H 238.594988 -7.170103 3.433274
H 238.610380 -8.002670 5.684756
H 238.927736 -4.340697 6.693055
H 239.010064 -2.481027 5.037824
H 236.250919 -3.196304 3.126848
H 234.498941 -1.761636 1.943876
C 248.535063 0.005783 0.004228
C 249.319772 0.875174 -1.062666
C 248.778238 1.472010 -2.176009
C 249.817286 2.169483 -2.838414
C 250.968470 1.973932 -2.114503
N 250.666712 1.147700 -1.057995
C 252.386821 2.590435 -2.450508
C 252.424496 3.770967 -3.349538
C 252.649483 3.615686 -4.722534
C 252.692178 4.730235 -5.563884
C 252.504602 6.005451 -5.027738
C 252.547611 7.198737 -5.897616
O 252.708907 7.136772 -7.110881
C 252.272869 6.174171 -3.660060
C 252.233283 5.055661 -2.824697
C 253.517660 2.070248 -1.903677
C 254.823878 2.620078 -2.198184
C 255.735377 1.917755 -1.535698
N 253.716832 1.027458 -1.037248
C 255.057249 0.884739 -0.778186
C 255.739343 0.005783 0.004228
C 254.963243 -1.103200 0.839715
C 255.542387 -2.115382 1.583195
C 254.501192 -2.840193 2.207534
C 253.308913 -2.252152 1.830252
N 253.598069 -1.216816 0.971124
C 251.874921 -2.685759 2.337922
C 251.812050 -3.782021 3.332074
C 251.687827 -5.104324 2.885121
C 251.655015 -6.153243 3.802678
C 251.732605 -5.872918 5.171843
C 251.686214 -6.997322 6.126425
O 251.754543 -6.847221 7.340229
C 251.846893 -4.557232 5.629464
C 251.891609 -3.511773 4.705112
C 250.746098 -2.092570 1.873109
C 249.438095 -2.456975 2.376033
C 248.530864 -1.709714 1.761579
C 249.210619 -0.850956 0.813978
N 250.549919 -1.116462 0.936087
H 247.746976 1.418540 -2.480599
H 249.731548 2.751814 -3.741140
H 251.339367 0.760148 -0.406945
H 252.798226 2.617479 -5.123177
H 252.874804 4.596574 -6.625127
H 252.419331 8.172853 -5.394387
H 252.122525 7.158132 -3.229561
H 252.059953 5.167491 -1.755101
H 255.036343 3.451685 -2.844330
H 256.792307 2.104307 -1.573496
H 256.598557 -2.307258 1.687413
H 254.613171 -3.684862 2.874935
H 252.909204 -0.619039 0.518050
H 251.617079 -5.294496 1.814300
H 251.569631 -7.170103 3.433274
H 251.585023 -8.002670 5.684756
H 251.902379 -4.340697 6.693055
H 251.984707 -2.481027 5.037824
H 249.225562 -3.196304 3.126848
H 247.473584 -1.761636 1.943876
