 xtb: 6.5.1 (b24c23e)
          07302211373D

181210  0     0  0            999 V2000
   31.0996   -0.0238   -0.0105 Zn  0  0  0  0  0  0  0  0  0  0  0  0
   27.6893   -0.0582   -0.0371 C   0  0  0  0  0  0  0  0  0  0  0  0
   28.3202   -1.2951    0.0245 C   0  0  0  0  0  0  0  0  0  0  0  0
   27.6473   -2.5600    0.1212 C   0  0  0  0  0  0  0  0  0  0  0  0
   28.6071   -3.5174    0.1718 C   0  0  0  0  0  0  0  0  0  0  0  0
   29.8793   -2.8493    0.0960 C   0  0  0  0  0  0  0  0  0  0  0  0
   29.6696   -1.5034    0.0168 N   0  0  0  0  0  0  0  0  0  0  0  0
   31.1308   -3.4773    0.1229 C   0  0  0  0  0  0  0  0  0  0  0  0
   31.1450   -4.9604    0.1881 C   0  0  0  0  0  0  0  0  0  0  0  0
   30.5793   -5.7221   -0.8346 C   0  0  0  0  0  0  0  0  0  0  0  0
   30.5940   -7.1075   -0.7785 C   0  0  0  0  0  0  0  0  0  0  0  0
   31.1730   -7.7485    0.3139 C   0  0  0  0  0  0  0  0  0  0  0  0
   31.2065   -9.1035    0.4105 O   0  0  0  0  0  0  0  0  0  0  0  0
   31.7378   -7.0001    1.3447 C   0  0  0  0  0  0  0  0  0  0  0  0
   31.7245   -5.6181    1.2759 C   0  0  0  0  0  0  0  0  0  0  0  0
   32.3692   -2.8262    0.0956 C   0  0  0  0  0  0  0  0  0  0  0  0
   33.6491   -3.4788    0.0679 C   0  0  0  0  0  0  0  0  0  0  0  0
   34.5948   -2.5052    0.0390 C   0  0  0  0  0  0  0  0  0  0  0  0
   32.5622   -1.4706    0.0672 N   0  0  0  0  0  0  0  0  0  0  0  0
   33.9039   -1.2493    0.0402 C   0  0  0  0  0  0  0  0  0  0  0  0
   34.5341    0.0110    0.0161 C   0  0  0  0  0  0  0  0  0  0  0  0
   33.8798    1.2585   -0.0169 C   0  0  0  0  0  0  0  0  0  0  0  0
   34.5466    2.5256   -0.0827 C   0  0  0  0  0  0  0  0  0  0  0  0
   33.5822    3.4796   -0.1366 C   0  0  0  0  0  0  0  0  0  0  0  0
   32.3145    2.8044   -0.0938 C   0  0  0  0  0  0  0  0  0  0  0  0
   32.5337    1.4541   -0.0261 N   0  0  0  0  0  0  0  0  0  0  0  0
   31.0636    3.4291   -0.1492 C   0  0  0  0  0  0  0  0  0  0  0  0
   31.0474    4.9124   -0.2169 C   0  0  0  0  0  0  0  0  0  0  0  0
   31.5791    5.6797    0.8222 C   0  0  0  0  0  0  0  0  0  0  0  0
   31.5656    7.0622    0.7619 C   0  0  0  0  0  0  0  0  0  0  0  0
   31.0218    7.7000   -0.3513 C   0  0  0  0  0  0  0  0  0  0  0  0
   31.0292    9.0585   -0.3812 O   0  0  0  0  0  0  0  0  0  0  0  0
   30.4893    6.9486   -1.3961 C   0  0  0  0  0  0  0  0  0  0  0  0
   30.5011    5.5641   -1.3230 C   0  0  0  0  0  0  0  0  0  0  0  0
   29.8251    2.7755   -0.1488 C   0  0  0  0  0  0  0  0  0  0  0  0
   28.5397    3.4224   -0.1538 C   0  0  0  0  0  0  0  0  0  0  0  0
   27.5986    2.4457   -0.1255 C   0  0  0  0  0  0  0  0  0  0  0  0
   28.2961    1.1908   -0.0945 C   0  0  0  0  0  0  0  0  0  0  0  0
   29.6415    1.4241   -0.1078 N   0  0  0  0  0  0  0  0  0  0  0  0
   26.6037   -0.0682   -0.0277 H   0  0  0  0  0  0  0  0  0  0  0  0
   26.5764   -2.6871    0.1542 H   0  0  0  0  0  0  0  0  0  0  0  0
   28.4701   -4.5829    0.2661 H   0  0  0  0  0  0  0  0  0  0  0  0
   30.1394   -5.2247   -1.6920 H   0  0  0  0  0  0  0  0  0  0  0  0
   30.1589   -7.6942   -1.5805 H   0  0  0  0  0  0  0  0  0  0  0  0
   30.7900   -9.5205   -0.3554 H   0  0  0  0  0  0  0  0  0  0  0  0
   32.1809   -7.5119    2.1902 H   0  0  0  0  0  0  0  0  0  0  0  0
   32.1537   -5.0359    2.0837 H   0  0  0  0  0  0  0  0  0  0  0  0
   33.8030   -4.5458    0.0572 H   0  0  0  0  0  0  0  0  0  0  0  0
   35.6668   -2.6200    0.0125 H   0  0  0  0  0  0  0  0  0  0  0  0
   35.6166    2.6601   -0.0952 H   0  0  0  0  0  0  0  0  0  0  0  0
   33.7163    4.5466   -0.2128 H   0  0  0  0  0  0  0  0  0  0  0  0
   31.9917    5.1840    1.6939 H   0  0  0  0  0  0  0  0  0  0  0  0
   31.9717    7.6592    1.5691 H   0  0  0  0  0  0  0  0  0  0  0  0
   30.6296    9.3939   -1.1948 H   0  0  0  0  0  0  0  0  0  0  0  0
   30.0700    7.4493   -2.2623 H   0  0  0  0  0  0  0  0  0  0  0  0
   30.0976    4.9801   -2.1429 H   0  0  0  0  0  0  0  0  0  0  0  0
   28.3817    4.4891   -0.1625 H   0  0  0  0  0  0  0  0  0  0  0  0
   26.5252    2.5540   -0.1180 H   0  0  0  0  0  0  0  0  0  0  0  0
   58.0642    0.0036    0.0094 Zn  0  0  0  0  0  0  0  0  0  0  0  0
   61.4744    0.0429   -0.0408 C   0  0  0  0  0  0  0  0  0  0  0  0
   60.8399    1.2756   -0.1370 C   0  0  0  0  0  0  0  0  0  0  0  0
   61.5091    2.5438   -0.2146 C   0  0  0  0  0  0  0  0  0  0  0  0
   60.5464    3.4976   -0.2769 C   0  0  0  0  0  0  0  0  0  0  0  0
   59.2759    2.8227   -0.2468 C   0  0  0  0  0  0  0  0  0  0  0  0
   59.4896    1.4782   -0.1551 N   0  0  0  0  0  0  0  0  0  0  0  0
   58.0229    3.4476   -0.2758 C   0  0  0  0  0  0  0  0  0  0  0  0
   58.0054    4.9264   -0.4072 C   0  0  0  0  0  0  0  0  0  0  0  0
   58.5424    5.5422   -1.5381 C   0  0  0  0  0  0  0  0  0  0  0  0
   58.5224    6.9222   -1.6711 C   0  0  0  0  0  0  0  0  0  0  0  0
   57.9670    7.7054   -0.6622 C   0  0  0  0  0  0  0  0  0  0  0  0
   57.9283    9.0607   -0.7510 O   0  0  0  0  0  0  0  0  0  0  0  0
   57.4321    7.1037    0.4753 C   0  0  0  0  0  0  0  0  0  0  0  0
   57.4504    5.7253    0.5953 C   0  0  0  0  0  0  0  0  0  0  0  0
   56.7865    2.7973   -0.1960 C   0  0  0  0  0  0  0  0  0  0  0  0
   55.5041    3.4408   -0.2730 C   0  0  0  0  0  0  0  0  0  0  0  0
   54.5614    2.4689   -0.1757 C   0  0  0  0  0  0  0  0  0  0  0  0
   56.5977    1.4471   -0.0653 N   0  0  0  0  0  0  0  0  0  0  0  0
   55.2564    1.2218   -0.0479 C   0  0  0  0  0  0  0  0  0  0  0  0
   54.6300   -0.0369    0.0491 C   0  0  0  0  0  0  0  0  0  0  0  0
   55.2877   -1.2798    0.1379 C   0  0  0  0  0  0  0  0  0  0  0  0
   54.6250   -2.5487    0.2110 C   0  0  0  0  0  0  0  0  0  0  0  0
   55.5924   -3.4986    0.2803 C   0  0  0  0  0  0  0  0  0  0  0  0
   56.8577   -2.8180    0.2572 C   0  0  0  0  0  0  0  0  0  0  0  0
   56.6343   -1.4701    0.1626 N   0  0  0  0  0  0  0  0  0  0  0  0
   58.1106   -3.4402    0.2942 C   0  0  0  0  0  0  0  0  0  0  0  0
   58.1307   -4.9193    0.4235 C   0  0  0  0  0  0  0  0  0  0  0  0
   57.5931   -5.5414    1.5528 C   0  0  0  0  0  0  0  0  0  0  0  0
   57.6130   -6.9191    1.6810 C   0  0  0  0  0  0  0  0  0  0  0  0
   58.1689   -7.6991    0.6689 C   0  0  0  0  0  0  0  0  0  0  0  0
   58.1686   -9.0490    0.8243 O   0  0  0  0  0  0  0  0  0  0  0  0
   58.7061   -7.0936   -0.4645 C   0  0  0  0  0  0  0  0  0  0  0  0
   58.6882   -5.7120   -0.5800 C   0  0  0  0  0  0  0  0  0  0  0  0
   59.3474   -2.7876    0.2200 C   0  0  0  0  0  0  0  0  0  0  0  0
   60.6348   -3.4255    0.3012 C   0  0  0  0  0  0  0  0  0  0  0  0
   61.5728   -2.4505    0.2019 C   0  0  0  0  0  0  0  0  0  0  0  0
   60.8715   -1.2045    0.0692 C   0  0  0  0  0  0  0  0  0  0  0  0
   59.5269   -1.4416    0.0867 N   0  0  0  0  0  0  0  0  0  0  0  0
   62.5601    0.0568   -0.0396 H   0  0  0  0  0  0  0  0  0  0  0  0
   62.5799    2.6762   -0.2124 H   0  0  0  0  0  0  0  0  0  0  0  0
   60.6804    4.5666   -0.3244 H   0  0  0  0  0  0  0  0  0  0  0  0
   58.9640    4.9329   -2.3301 H   0  0  0  0  0  0  0  0  0  0  0  0
   58.9346    7.3946   -2.5564 H   0  0  0  0  0  0  0  0  0  0  0  0
   58.3217    9.3696   -1.5780 H   0  0  0  0  0  0  0  0  0  0  0  0
   57.0074    7.7256    1.2540 H   0  0  0  0  0  0  0  0  0  0  0  0
   57.0443    5.2581    1.4856 H   0  0  0  0  0  0  0  0  0  0  0  0
   55.3460    4.4997   -0.4003 H   0  0  0  0  0  0  0  0  0  0  0  0
   53.4888    2.5786   -0.1965 H   0  0  0  0  0  0  0  0  0  0  0  0
   53.5555   -2.6875    0.2040 H   0  0  0  0  0  0  0  0  0  0  0  0
   55.4625   -4.5678    0.3291 H   0  0  0  0  0  0  0  0  0  0  0  0
   57.1708   -4.9341    2.3457 H   0  0  0  0  0  0  0  0  0  0  0  0
   57.2030   -7.4032    2.5588 H   0  0  0  0  0  0  0  0  0  0  0  0
   58.5756   -9.4898    0.0664 H   0  0  0  0  0  0  0  0  0  0  0  0
   59.1343   -7.7051   -1.2516 H   0  0  0  0  0  0  0  0  0  0  0  0
   59.0958   -5.2427   -1.4686 H   0  0  0  0  0  0  0  0  0  0  0  0
   60.7961   -4.4838    0.4313 H   0  0  0  0  0  0  0  0  0  0  0  0
   62.6466   -2.5536    0.2236 H   0  0  0  0  0  0  0  0  0  0  0  0
   37.1630    0.0294    0.0105 C   0  0  0  0  0  0  0  0  0  0  0  0
   35.9410    0.0228    0.0123 C   0  0  0  0  0  0  0  0  0  0  0  0
   38.5135    0.0343    0.0053 C   0  0  0  0  0  0  0  0  0  0  0  0
   39.7357    0.0322    0.0013 C   0  0  0  0  0  0  0  0  0  0  0  0
   50.6505   -0.0438    0.0219 C   0  0  0  0  0  0  0  0  0  0  0  0
   49.4284   -0.0334    0.0086 C   0  0  0  0  0  0  0  0  0  0  0  0
   52.0010   -0.0499    0.0303 C   0  0  0  0  0  0  0  0  0  0  0  0
   53.2230   -0.0517    0.0416 C   0  0  0  0  0  0  0  0  0  0  0  0
   44.5821    0.0102   -0.0131 Zn  0  0  0  0  0  0  0  0  0  0  0  0
   41.1421    0.0276   -0.0045 C   0  0  0  0  0  0  0  0  0  0  0  0
   41.7927    1.1044    0.6305 C   0  0  0  0  0  0  0  0  0  0  0  0
   41.1226    2.1723    1.3110 C   0  0  0  0  0  0  0  0  0  0  0  0
   42.0844    3.0014    1.7924 C   0  0  0  0  0  0  0  0  0  0  0  0
   43.3522    2.4523    1.4003 C   0  0  0  0  0  0  0  0  0  0  0  0
   43.1378    1.2935    0.7028 N   0  0  0  0  0  0  0  0  0  0  0  0
   44.6018    3.0045    1.7041 C   0  0  0  0  0  0  0  0  0  0  0  0
   44.6110    4.2882    2.4500 C   0  0  0  0  0  0  0  0  0  0  0  0
   45.2023    4.3710    3.7131 C   0  0  0  0  0  0  0  0  0  0  0  0
   45.2093    5.5624    4.4165 C   0  0  0  0  0  0  0  0  0  0  0  0
   44.6260    6.6981    3.8579 C   0  0  0  0  0  0  0  0  0  0  0  0
   44.6526    7.8522    4.5739 O   0  0  0  0  0  0  0  0  0  0  0  0
   44.0362    6.6323    2.5978 C   0  0  0  0  0  0  0  0  0  0  0  0
   44.0282    5.4321    1.9038 C   0  0  0  0  0  0  0  0  0  0  0  0
   45.8440    2.4520    1.3713 C   0  0  0  0  0  0  0  0  0  0  0  0
   47.1194    3.0545    1.6413 C   0  0  0  0  0  0  0  0  0  0  0  0
   48.0701    2.2098    1.1654 C   0  0  0  0  0  0  0  0  0  0  0  0
   46.0428    1.2630    0.7217 N   0  0  0  0  0  0  0  0  0  0  0  0
   47.3857    1.0896    0.5914 C   0  0  0  0  0  0  0  0  0  0  0  0
   48.0221   -0.0186   -0.0029 C   0  0  0  0  0  0  0  0  0  0  0  0
   47.3711   -1.1113   -0.6095 C   0  0  0  0  0  0  0  0  0  0  0  0
   48.0404   -2.2349   -1.1947 C   0  0  0  0  0  0  0  0  0  0  0  0
   47.0787   -3.0564   -1.6890 C   0  0  0  0  0  0  0  0  0  0  0  0
   45.8118   -2.4378   -1.4153 C   0  0  0  0  0  0  0  0  0  0  0  0
   46.0264   -1.2608   -0.7495 N   0  0  0  0  0  0  0  0  0  0  0  0
   44.5627   -2.9701   -1.7544 C   0  0  0  0  0  0  0  0  0  0  0  0
   44.5567   -4.2415   -2.5214 C   0  0  0  0  0  0  0  0  0  0  0  0
   43.9725   -5.3917   -1.9905 C   0  0  0  0  0  0  0  0  0  0  0  0
   43.9669   -6.5790   -2.7064 C   0  0  0  0  0  0  0  0  0  0  0  0
   44.5439   -6.6249   -3.9732 C   0  0  0  0  0  0  0  0  0  0  0  0
   44.5565   -7.7661   -4.7105 O   0  0  0  0  0  0  0  0  0  0  0  0
   45.1287   -5.4827   -4.5167 C   0  0  0  0  0  0  0  0  0  0  0  0
   45.1358   -4.3045   -3.7912 C   0  0  0  0  0  0  0  0  0  0  0  0
   43.3203   -2.4091   -1.4383 C   0  0  0  0  0  0  0  0  0  0  0  0
   42.0449   -2.9445   -1.8245 C   0  0  0  0  0  0  0  0  0  0  0  0
   41.0940   -2.1114   -1.3288 C   0  0  0  0  0  0  0  0  0  0  0  0
   41.7786   -1.0533   -0.6471 C   0  0  0  0  0  0  0  0  0  0  0  0
   43.1212   -1.2536   -0.7307 N   0  0  0  0  0  0  0  0  0  0  0  0
   40.0529    2.2650    1.4120 H   0  0  0  0  0  0  0  0  0  0  0  0
   41.9478    3.8987    2.3742 H   0  0  0  0  0  0  0  0  0  0  0  0
   45.6449    3.4844    4.1535 H   0  0  0  0  0  0  0  0  0  0  0  0
   45.6609    5.6270    5.3988 H   0  0  0  0  0  0  0  0  0  0  0  0
   44.2183    8.5720    4.0968 H   0  0  0  0  0  0  0  0  0  0  0  0
   43.5872    7.5199    2.1650 H   0  0  0  0  0  0  0  0  0  0  0  0
   43.5796    5.3857    0.9177 H   0  0  0  0  0  0  0  0  0  0  0  0
   47.2679    4.0084    2.1214 H   0  0  0  0  0  0  0  0  0  0  0  0
   49.1413    2.3320    1.1908 H   0  0  0  0  0  0  0  0  0  0  0  0
   49.1097   -2.3737   -1.2165 H   0  0  0  0  0  0  0  0  0  0  0  0
   47.2140   -4.0046   -2.1838 H   0  0  0  0  0  0  0  0  0  0  0  0
   43.5336   -5.3607   -0.9993 H   0  0  0  0  0  0  0  0  0  0  0  0
   43.5171   -7.4719   -2.2855 H   0  0  0  0  0  0  0  0  0  0  0  0
   44.1242   -8.4922   -4.2413 H   0  0  0  0  0  0  0  0  0  0  0  0
   45.5704   -5.5319   -5.5043 H   0  0  0  0  0  0  0  0  0  0  0  0
   45.5803   -3.4128   -4.2190 H   0  0  0  0  0  0  0  0  0  0  0  0
   41.8960   -3.8369   -2.4108 H   0  0  0  0  0  0  0  0  0  0  0  0
   40.0228   -2.1947   -1.4213 H   0  0  0  0  0  0  0  0  0  0  0  0
  2  3  4  0  0  0  0
  3  4  4  0  0  0  0
  4  5  2  0  0  0  0
  5  6  4  0  0  0  0
  1  7  1  0  0  0  0
  3  7  4  0  0  0  0
  6  7  4  0  0  0  0
  6  8  4  0  0  0  0
  8  9  1  0  0  0  0
  9 10  4  0  0  0  0
 10 11  4  0  0  0  0
 11 12  4  0  0  0  0
 12 13  1  0  0  0  0
 12 14  4  0  0  0  0
  9 15  4  0  0  0  0
 14 15  4  0  0  0  0
  8 16  4  0  0  0  0
 16 17  4  0  0  0  0
 17 18  2  0  0  0  0
  1 19  1  0  0  0  0
 16 19  4  0  0  0  0
 18 20  4  0  0  0  0
 19 20  4  0  0  0  0
 20 21  4  0  0  0  0
 21 22  4  0  0  0  0
 22 23  4  0  0  0  0
 23 24  2  0  0  0  0
 24 25  4  0  0  0  0
  1 26  1  0  0  0  0
 22 26  4  0  0  0  0
 25 26  4  0  0  0  0
 25 27  4  0  0  0  0
 27 28  1  0  0  0  0
 28 29  4  0  0  0  0
 29 30  4  0  0  0  0
 30 31  4  0  0  0  0
 31 32  1  0  0  0  0
 31 33  4  0  0  0  0
 28 34  4  0  0  0  0
 33 34  4  0  0  0  0
 27 35  4  0  0  0  0
 35 36  4  0  0  0  0
 36 37  2  0  0  0  0
  2 38  4  0  0  0  0
 37 38  4  0  0  0  0
  1 39  1  0  0  0  0
 35 39  4  0  0  0  0
 38 39  4  0  0  0  0
  2 40  1  0  0  0  0
  4 41  1  0  0  0  0
  5 42  1  0  0  0  0
 10 43  1  0  0  0  0
 11 44  1  0  0  0  0
 13 45  1  0  0  0  0
 14 46  1  0  0  0  0
 15 47  1  0  0  0  0
 17 48  1  0  0  0  0
 18 49  1  0  0  0  0
 23 50  1  0  0  0  0
 24 51  1  0  0  0  0
 29 52  1  0  0  0  0
 30 53  1  0  0  0  0
 32 54  1  0  0  0  0
 33 55  1  0  0  0  0
 34 56  1  0  0  0  0
 36 57  1  0  0  0  0
 37 58  1  0  0  0  0
 60 61  4  0  0  0  0
 61 62  4  0  0  0  0
 62 63  2  0  0  0  0
 63 64  4  0  0  0  0
 59 65  1  0  0  0  0
 61 65  4  0  0  0  0
 64 65  4  0  0  0  0
 64 66  4  0  0  0  0
 66 67  1  0  0  0  0
 67 68  4  0  0  0  0
 68 69  4  0  0  0  0
 69 70  4  0  0  0  0
 70 71  1  0  0  0  0
 70 72  4  0  0  0  0
 67 73  4  0  0  0  0
 72 73  4  0  0  0  0
 66 74  4  0  0  0  0
 74 75  4  0  0  0  0
 75 76  2  0  0  0  0
 59 77  1  0  0  0  0
 74 77  4  0  0  0  0
 76 78  4  0  0  0  0
 77 78  4  0  0  0  0
 78 79  4  0  0  0  0
 79 80  4  0  0  0  0
 80 81  4  0  0  0  0
 81 82  2  0  0  0  0
 82 83  4  0  0  0  0
 59 84  1  0  0  0  0
 80 84  4  0  0  0  0
 83 84  4  0  0  0  0
 83 85  4  0  0  0  0
 85 86  1  0  0  0  0
 86 87  4  0  0  0  0
 87 88  4  0  0  0  0
 88 89  4  0  0  0  0
 89 90  1  0  0  0  0
 89 91  4  0  0  0  0
 86 92  4  0  0  0  0
 91 92  4  0  0  0  0
 85 93  4  0  0  0  0
 93 94  4  0  0  0  0
 94 95  2  0  0  0  0
 60 96  4  0  0  0  0
 95 96  1  0  0  0  0
 59 97  1  0  0  0  0
 93 97  4  0  0  0  0
 96 97  4  0  0  0  0
 60 98  1  0  0  0  0
 62 99  1  0  0  0  0
 63100  1  0  0  0  0
 68101  1  0  0  0  0
 69102  1  0  0  0  0
 71103  1  0  0  0  0
 72104  1  0  0  0  0
 73105  1  0  0  0  0
 75106  1  0  0  0  0
 76107  1  0  0  0  0
 81108  1  0  0  0  0
 82109  1  0  0  0  0
 87110  1  0  0  0  0
 88111  1  0  0  0  0
 90112  1  0  0  0  0
 91113  1  0  0  0  0
 92114  1  0  0  0  0
 94115  1  0  0  0  0
 95116  1  0  0  0  0
 21118  4  0  0  0  0
117118  3  0  0  0  0
117119  4  0  0  0  0
119120  3  0  0  0  0
121122  3  0  0  0  0
121123  4  0  0  0  0
 79124  4  0  0  0  0
123124  3  0  0  0  0
120126  4  0  0  0  0
126127  4  0  0  0  0
127128  4  0  0  0  0
128129  2  0  0  0  0
129130  4  0  0  0  0
125131  1  0  0  0  0
127131  4  0  0  0  0
130131  4  0  0  0  0
130132  4  0  0  0  0
132133  1  0  0  0  0
133134  4  0  0  0  0
134135  4  0  0  0  0
135136  4  0  0  0  0
136137  1  0  0  0  0
136138  4  0  0  0  0
133139  4  0  0  0  0
138139  4  0  0  0  0
132140  4  0  0  0  0
140141  4  0  0  0  0
141142  2  0  0  0  0
125143  1  0  0  0  0
140143  4  0  0  0  0
142144  4  0  0  0  0
143144  4  0  0  0  0
122145  4  0  0  0  0
144145  4  0  0  0  0
145146  4  0  0  0  0
146147  4  0  0  0  0
147148  2  0  0  0  0
148149  4  0  0  0  0
125150  1  0  0  0  0
146150  4  0  0  0  0
149150  4  0  0  0  0
149151  4  0  0  0  0
151152  1  0  0  0  0
152153  4  0  0  0  0
153154  4  0  0  0  0
154155  4  0  0  0  0
155156  1  0  0  0  0
155157  4  0  0  0  0
152158  4  0  0  0  0
157158  4  0  0  0  0
151159  4  0  0  0  0
159160  4  0  0  0  0
160161  2  0  0  0  0
126162  4  0  0  0  0
161162  4  0  0  0  0
125163  1  0  0  0  0
159163  4  0  0  0  0
162163  4  0  0  0  0
128164  1  0  0  0  0
129165  1  0  0  0  0
134166  1  0  0  0  0
135167  1  0  0  0  0
137168  1  0  0  0  0
138169  1  0  0  0  0
139170  1  0  0  0  0
141171  1  0  0  0  0
142172  1  0  0  0  0
147173  1  0  0  0  0
148174  1  0  0  0  0
153175  1  0  0  0  0
154176  1  0  0  0  0
156177  1  0  0  0  0
157178  1  0  0  0  0
158179  1  0  0  0  0
160180  1  0  0  0  0
161181  1  0  0  0  0
M  END
