 xtb: 6.5.1 (b24c23e)
          07302212103D

148167  0     0  0            999 V2000
   14.4481    0.0414    0.0196 Cu  0  0  0  0  0  0  0  0  0  0  0  0
   11.0470    0.2388   -0.1196 C   0  0  0  0  0  0  0  0  0  0  0  0
   11.6854    1.0760    0.7836 C   0  0  0  0  0  0  0  0  0  0  0  0
   11.0165    1.9915    1.6643 C   0  0  0  0  0  0  0  0  0  0  0  0
   11.9776    2.6122    2.3924 C   0  0  0  0  0  0  0  0  0  0  0  0
   13.2428    2.0864    1.9583 C   0  0  0  0  0  0  0  0  0  0  0  0
   13.0339    1.1557    0.9818 N   0  0  0  0  0  0  0  0  0  0  0  0
   14.4848    2.4580    2.4741 C   0  0  0  0  0  0  0  0  0  0  0  0
   15.7123    1.9348    2.0701 C   0  0  0  0  0  0  0  0  0  0  0  0
   16.9888    2.3547    2.5742 C   0  0  0  0  0  0  0  0  0  0  0  0
   17.9332    1.6365    1.9155 C   0  0  0  0  0  0  0  0  0  0  0  0
   15.8996    0.9700    1.1158 N   0  0  0  0  0  0  0  0  0  0  0  0
   17.2410    0.7738    1.0045 C   0  0  0  0  0  0  0  0  0  0  0  0
   17.8738   -0.1290    0.1317 C   0  0  0  0  0  0  0  0  0  0  0  0
   17.2121   -0.9799   -0.7713 C   0  0  0  0  0  0  0  0  0  0  0  0
   17.8723   -1.9217   -1.6258 C   0  0  0  0  0  0  0  0  0  0  0  0
   16.9053   -2.5561   -2.3359 C   0  0  0  0  0  0  0  0  0  0  0  0
   15.6473   -2.0009   -1.9246 C   0  0  0  0  0  0  0  0  0  0  0  0
   14.4033   -2.3935   -2.4167 C   0  0  0  0  0  0  0  0  0  0  0  0
   14.3834   -3.4510   -3.4681 C   0  0  0  0  0  0  0  0  0  0  0  0
   14.8365   -3.1720   -4.7640 C   0  0  0  0  0  0  0  0  0  0  0  0
   15.2690   -1.9016   -4.9811 O   0  0  0  0  0  0  0  0  0  0  0  0
   15.7611   -1.5204   -6.2496 C   0  0  0  0  0  0  0  0  0  0  0  0
   14.8168   -4.1617   -5.7464 C   0  0  0  0  0  0  0  0  0  0  0  0
   14.3487   -5.4274   -5.4271 C   0  0  0  0  0  0  0  0  0  0  0  0
   13.8965   -5.7271   -4.1509 C   0  0  0  0  0  0  0  0  0  0  0  0
   13.9110   -4.7357   -3.1702 C   0  0  0  0  0  0  0  0  0  0  0  0
   13.4941   -4.9331   -1.8911 O   0  0  0  0  0  0  0  0  0  0  0  0
   12.9932   -6.1914   -1.4883 C   0  0  0  0  0  0  0  0  0  0  0  0
   13.1751   -1.8746   -2.0058 C   0  0  0  0  0  0  0  0  0  0  0  0
   11.8971   -2.2540   -2.5432 C   0  0  0  0  0  0  0  0  0  0  0  0
   10.9588   -1.5149   -1.9010 C   0  0  0  0  0  0  0  0  0  0  0  0
   11.6553   -0.6742   -0.9686 C   0  0  0  0  0  0  0  0  0  0  0  0
   12.9968   -0.9137   -1.0528 N   0  0  0  0  0  0  0  0  0  0  0  0
   15.8676   -1.0454   -0.9678 N   0  0  0  0  0  0  0  0  0  0  0  0
   14.5014    3.5010    3.5398 C   0  0  0  0  0  0  0  0  0  0  0  0
   14.8191    3.1593    4.8607 C   0  0  0  0  0  0  0  0  0  0  0  0
   15.0901    1.8461    5.0853 O   0  0  0  0  0  0  0  0  0  0  0  0
   15.4386    1.3989    6.3797 C   0  0  0  0  0  0  0  0  0  0  0  0
   14.8333    4.1344    5.8576 C   0  0  0  0  0  0  0  0  0  0  0  0
   14.5350    5.4479    5.5281 C   0  0  0  0  0  0  0  0  0  0  0  0
   14.2199    5.8102    4.2271 C   0  0  0  0  0  0  0  0  0  0  0  0
   14.2006    4.8340    3.2314 C   0  0  0  0  0  0  0  0  0  0  0  0
   13.9110    5.0907    1.9278 O   0  0  0  0  0  0  0  0  0  0  0  0
   13.5908    6.4023    1.5113 C   0  0  0  0  0  0  0  0  0  0  0  0
    9.9645    0.3029   -0.1649 H   0  0  0  0  0  0  0  0  0  0  0  0
    9.9471    2.1272    1.7119 H   0  0  0  0  0  0  0  0  0  0  0  0
   11.8510    3.3604    3.1585 H   0  0  0  0  0  0  0  0  0  0  0  0
   17.1366    3.1073    3.3319 H   0  0  0  0  0  0  0  0  0  0  0  0
   19.0049    1.6808    2.0272 H   0  0  0  0  0  0  0  0  0  0  0  0
   18.9392   -2.0743   -1.6649 H   0  0  0  0  0  0  0  0  0  0  0  0
   17.0259   -3.3339   -3.0727 H   0  0  0  0  0  0  0  0  0  0  0  0
   14.9903   -1.6132   -7.0245 H   0  0  0  0  0  0  0  0  0  0  0  0
   16.0541   -0.4727   -6.1597 H   0  0  0  0  0  0  0  0  0  0  0  0
   16.6366   -2.1156   -6.5365 H   0  0  0  0  0  0  0  0  0  0  0  0
   15.1606   -3.9556   -6.7512 H   0  0  0  0  0  0  0  0  0  0  0  0
   14.3360   -6.1978   -6.1903 H   0  0  0  0  0  0  0  0  0  0  0  0
   13.5388   -6.7238   -3.9298 H   0  0  0  0  0  0  0  0  0  0  0  0
   12.7159   -6.0860   -0.4377 H   0  0  0  0  0  0  0  0  0  0  0  0
   12.1062   -6.4753   -2.0677 H   0  0  0  0  0  0  0  0  0  0  0  0
   13.7540   -6.9758   -1.5827 H   0  0  0  0  0  0  0  0  0  0  0  0
   11.7476   -2.9911   -3.3160 H   0  0  0  0  0  0  0  0  0  0  0  0
    9.8887   -1.5241   -2.0388 H   0  0  0  0  0  0  0  0  0  0  0  0
   15.6218    0.3263    6.2915 H   0  0  0  0  0  0  0  0  0  0  0  0
   14.6250    1.5672    7.0958 H   0  0  0  0  0  0  0  0  0  0  0  0
   16.3489    1.8908    6.7433 H   0  0  0  0  0  0  0  0  0  0  0  0
   15.0728    3.8803    6.8814 H   0  0  0  0  0  0  0  0  0  0  0  0
   14.5481    6.2066    6.3029 H   0  0  0  0  0  0  0  0  0  0  0  0
   13.9934    6.8430    3.9986 H   0  0  0  0  0  0  0  0  0  0  0  0
   14.4221    7.0953    1.6895 H   0  0  0  0  0  0  0  0  0  0  0  0
   13.3987    6.3421    0.4384 H   0  0  0  0  0  0  0  0  0  0  0  0
   12.6924    6.7766    2.0171 H   0  0  0  0  0  0  0  0  0  0  0  0
   27.9049   -0.0135   -0.0432 Cu  0  0  0  0  0  0  0  0  0  0  0  0
   31.3059    0.1545   -0.2204 C   0  0  0  0  0  0  0  0  0  0  0  0
   30.6676   -0.6206   -1.1775 C   0  0  0  0  0  0  0  0  0  0  0  0
   31.3363   -1.3612   -2.2097 C   0  0  0  0  0  0  0  0  0  0  0  0
   30.3753   -1.9946   -2.9269 C   0  0  0  0  0  0  0  0  0  0  0  0
   29.1102   -1.6412   -2.3435 C   0  0  0  0  0  0  0  0  0  0  0  0
   29.3192   -0.8067   -1.2835 N   0  0  0  0  0  0  0  0  0  0  0  0
   27.8684   -2.1002   -2.7835 C   0  0  0  0  0  0  0  0  0  0  0  0
   26.6409   -1.7756   -2.2076 C   0  0  0  0  0  0  0  0  0  0  0  0
   25.3646   -2.2161   -2.6940 C   0  0  0  0  0  0  0  0  0  0  0  0
   24.4201   -1.6661   -1.8897 C   0  0  0  0  0  0  0  0  0  0  0  0
   26.4536   -0.9675   -1.1174 N   0  0  0  0  0  0  0  0  0  0  0  0
   25.1122   -0.8858   -0.9071 C   0  0  0  0  0  0  0  0  0  0  0  0
   24.4792   -0.1493    0.1099 C   0  0  0  0  0  0  0  0  0  0  0  0
   25.1408    0.6243    1.0800 C   0  0  0  0  0  0  0  0  0  0  0  0
   24.4805    1.3374    2.1329 C   0  0  0  0  0  0  0  0  0  0  0  0
   25.4475    1.9501    2.8618 C   0  0  0  0  0  0  0  0  0  0  0  0
   26.7055    1.6209    2.2544 C   0  0  0  0  0  0  0  0  0  0  0  0
   27.9496    2.0518    2.7133 C   0  0  0  0  0  0  0  0  0  0  0  0
   27.9695    2.9421    3.9095 C   0  0  0  0  0  0  0  0  0  0  0  0
   27.5183    4.2651    3.8172 C   0  0  0  0  0  0  0  0  0  0  0  0
   27.0877    4.6612    2.5900 O   0  0  0  0  0  0  0  0  0  0  0  0
   26.5985    5.9721    2.3923 C   0  0  0  0  0  0  0  0  0  0  0  0
   27.5375    5.0966    4.9367 C   0  0  0  0  0  0  0  0  0  0  0  0
   28.0034    4.5999    6.1446 C   0  0  0  0  0  0  0  0  0  0  0  0
   28.4540    3.2936    6.2602 C   0  0  0  0  0  0  0  0  0  0  0  0
   28.4399    2.4640    5.1394 C   0  0  0  0  0  0  0  0  0  0  0  0
   28.8554    1.1693    5.1531 O   0  0  0  0  0  0  0  0  0  0  0  0
   29.3532    0.5906    6.3420 C   0  0  0  0  0  0  0  0  0  0  0  0
   29.1779    1.7186    2.1414 C   0  0  0  0  0  0  0  0  0  0  0  0
   30.4558    2.1965    2.5934 C   0  0  0  0  0  0  0  0  0  0  0  0
   31.3941    1.6668    1.7700 C   0  0  0  0  0  0  0  0  0  0  0  0
   30.6976    0.8639    0.8048 C   0  0  0  0  0  0  0  0  0  0  0  0
   29.3562    0.9127    1.0542 N   0  0  0  0  0  0  0  0  0  0  0  0
   26.4853    0.8092    1.1731 N   0  0  0  0  0  0  0  0  0  0  0  0
   27.8518   -3.0070   -3.9673 C   0  0  0  0  0  0  0  0  0  0  0  0
   27.5378   -4.3638   -3.8159 C   0  0  0  0  0  0  0  0  0  0  0  0
   27.2700   -4.7731   -2.5474 O   0  0  0  0  0  0  0  0  0  0  0  0
   26.9259   -6.1187   -2.2875 C   0  0  0  0  0  0  0  0  0  0  0  0
   27.5237   -5.2122   -4.9226 C   0  0  0  0  0  0  0  0  0  0  0  0
   27.8185   -4.6989   -6.1766 C   0  0  0  0  0  0  0  0  0  0  0  0
   28.1300   -3.3589   -6.3511 C   0  0  0  0  0  0  0  0  0  0  0  0
   28.1490   -2.5117   -5.2435 C   0  0  0  0  0  0  0  0  0  0  0  0
   28.4352   -1.1842   -5.3131 O   0  0  0  0  0  0  0  0  0  0  0  0
   28.7511   -0.5848   -6.5529 C   0  0  0  0  0  0  0  0  0  0  0  0
   32.3883    0.2094   -0.2780 H   0  0  0  0  0  0  0  0  0  0  0  0
   32.4056   -1.3879   -2.3517 H   0  0  0  0  0  0  0  0  0  0  0  0
   30.5018   -2.6463   -3.7766 H   0  0  0  0  0  0  0  0  0  0  0  0
   25.2169   -2.8600   -3.5462 H   0  0  0  0  0  0  0  0  0  0  0  0
   23.3484   -1.7710   -1.9489 H   0  0  0  0  0  0  0  0  0  0  0  0
   23.4135    1.3551    2.2890 H   0  0  0  0  0  0  0  0  0  0  0  0
   25.3268    2.5696    3.7359 H   0  0  0  0  0  0  0  0  0  0  0  0
   27.3706    6.7243    2.5954 H   0  0  0  0  0  0  0  0  0  0  0  0
   26.3072    6.0326    1.3420 H   0  0  0  0  0  0  0  0  0  0  0  0
   25.7226    6.1732    3.0209 H   0  0  0  0  0  0  0  0  0  0  0  0
   27.1949    6.1209    4.8752 H   0  0  0  0  0  0  0  0  0  0  0  0
   28.0158    5.2457    7.0158 H   0  0  0  0  0  0  0  0  0  0  0  0
   28.8102    2.9324    7.2158 H   0  0  0  0  0  0  0  0  0  0  0  0
   29.6294   -0.4347    6.0886 H   0  0  0  0  0  0  0  0  0  0  0  0
   30.2403    1.1222    6.7073 H   0  0  0  0  0  0  0  0  0  0  0  0
   28.5909    0.5734    7.1306 H   0  0  0  0  0  0  0  0  0  0  0  0
   30.6054    2.8560    3.4335 H   0  0  0  0  0  0  0  0  0  0  0  0
   32.4641    1.8021    1.7986 H   0  0  0  0  0  0  0  0  0  0  0  0
   26.7450   -6.1840   -1.2129 H   0  0  0  0  0  0  0  0  0  0  0  0
   27.7408   -6.8015   -2.5574 H   0  0  0  0  0  0  0  0  0  0  0  0
   26.0152   -6.4115   -2.8241 H   0  0  0  0  0  0  0  0  0  0  0  0
   27.2870   -6.2624   -4.8159 H   0  0  0  0  0  0  0  0  0  0  0  0
   27.8056   -5.3583   -7.0375 H   0  0  0  0  0  0  0  0  0  0  0  0
   28.3539   -2.9856   -7.3415 H   0  0  0  0  0  0  0  0  0  0  0  0
   27.9186   -0.6653   -7.2625 H   0  0  0  0  0  0  0  0  0  0  0  0
   28.9406    0.4693   -6.3413 H   0  0  0  0  0  0  0  0  0  0  0  0
   29.6500   -1.0297   -6.9970 H   0  0  0  0  0  0  0  0  0  0  0  0
   20.5012   -0.1901    0.1721 C   0  0  0  0  0  0  0  0  0  0  0  0
   19.2796   -0.1749    0.1575 C   0  0  0  0  0  0  0  0  0  0  0  0
   21.8517   -0.1973    0.1652 C   0  0  0  0  0  0  0  0  0  0  0  0
   23.0734   -0.1810    0.1507 C   0  0  0  0  0  0  0  0  0  0  0  0
  2  3  4  0  0  0  0
  3  4  1  0  0  0  0
  4  5  2  0  0  0  0
  5  6  4  0  0  0  0
  1  7  1  0  0  0  0
  3  7  4  0  0  0  0
  6  7  4  0  0  0  0
  6  8  4  0  0  0  0
  8  9  4  0  0  0  0
  9 10  4  0  0  0  0
 10 11  2  0  0  0  0
  1 12  1  0  0  0  0
  9 12  4  0  0  0  0
 11 13  4  0  0  0  0
 12 13  4  0  0  0  0
 13 14  4  0  0  0  0
 14 15  4  0  0  0  0
 15 16  4  0  0  0  0
 16 17  2  0  0  0  0
 17 18  4  0  0  0  0
 18 19  4  0  0  0  0
 19 20  1  0  0  0  0
 20 21  4  0  0  0  0
 21 22  1  0  0  0  0
 22 23  1  0  0  0  0
 21 24  4  0  0  0  0
 24 25  4  0  0  0  0
 25 26  4  0  0  0  0
 20 27  4  0  0  0  0
 26 27  4  0  0  0  0
 27 28  1  0  0  0  0
 28 29  1  0  0  0  0
 19 30  4  0  0  0  0
 30 31  4  0  0  0  0
 31 32  2  0  0  0  0
  2 33  4  0  0  0  0
 32 33  1  0  0  0  0
  1 34  1  0  0  0  0
 30 34  4  0  0  0  0
 33 34  4  0  0  0  0
  1 35  1  0  0  0  0
 15 35  4  0  0  0  0
 18 35  4  0  0  0  0
  8 36  1  0  0  0  0
 36 37  4  0  0  0  0
 37 38  1  0  0  0  0
 38 39  1  0  0  0  0
 37 40  4  0  0  0  0
 40 41  4  0  0  0  0
 41 42  4  0  0  0  0
 36 43  4  0  0  0  0
 42 43  4  0  0  0  0
 43 44  1  0  0  0  0
 44 45  1  0  0  0  0
  2 46  1  0  0  0  0
  4 47  1  0  0  0  0
  5 48  1  0  0  0  0
 10 49  1  0  0  0  0
 11 50  1  0  0  0  0
 16 51  1  0  0  0  0
 17 52  1  0  0  0  0
 23 53  1  0  0  0  0
 23 54  1  0  0  0  0
 23 55  1  0  0  0  0
 24 56  1  0  0  0  0
 25 57  1  0  0  0  0
 26 58  1  0  0  0  0
 29 59  1  0  0  0  0
 29 60  1  0  0  0  0
 29 61  1  0  0  0  0
 31 62  1  0  0  0  0
 32 63  1  0  0  0  0
 39 64  1  0  0  0  0
 39 65  1  0  0  0  0
 39 66  1  0  0  0  0
 40 67  1  0  0  0  0
 41 68  1  0  0  0  0
 42 69  1  0  0  0  0
 45 70  1  0  0  0  0
 45 71  1  0  0  0  0
 45 72  1  0  0  0  0
 74 75  4  0  0  0  0
 75 76  1  0  0  0  0
 76 77  2  0  0  0  0
 77 78  4  0  0  0  0
 73 79  1  0  0  0  0
 75 79  4  0  0  0  0
 78 79  4  0  0  0  0
 78 80  4  0  0  0  0
 80 81  4  0  0  0  0
 81 82  4  0  0  0  0
 82 83  2  0  0  0  0
 73 84  1  0  0  0  0
 81 84  4  0  0  0  0
 83 85  4  0  0  0  0
 84 85  4  0  0  0  0
 85 86  4  0  0  0  0
 86 87  4  0  0  0  0
 87 88  4  0  0  0  0
 88 89  2  0  0  0  0
 89 90  4  0  0  0  0
 90 91  4  0  0  0  0
 91 92  1  0  0  0  0
 92 93  4  0  0  0  0
 93 94  1  0  0  0  0
 94 95  1  0  0  0  0
 93 96  4  0  0  0  0
 96 97  4  0  0  0  0
 97 98  4  0  0  0  0
 92 99  4  0  0  0  0
 98 99  4  0  0  0  0
 99100  1  0  0  0  0
100101  1  0  0  0  0
 91102  4  0  0  0  0
102103  4  0  0  0  0
103104  2  0  0  0  0
 74105  4  0  0  0  0
104105  1  0  0  0  0
 73106  1  0  0  0  0
102106  4  0  0  0  0
105106  4  0  0  0  0
 73107  1  0  0  0  0
 87107  4  0  0  0  0
 90107  4  0  0  0  0
 80108  1  0  0  0  0
108109  4  0  0  0  0
109110  1  0  0  0  0
110111  1  0  0  0  0
109112  4  0  0  0  0
112113  4  0  0  0  0
113114  4  0  0  0  0
108115  4  0  0  0  0
114115  4  0  0  0  0
115116  1  0  0  0  0
116117  1  0  0  0  0
 74118  1  0  0  0  0
 76119  1  0  0  0  0
 77120  1  0  0  0  0
 82121  1  0  0  0  0
 83122  1  0  0  0  0
 88123  1  0  0  0  0
 89124  1  0  0  0  0
 95125  1  0  0  0  0
 95126  1  0  0  0  0
 95127  1  0  0  0  0
 96128  1  0  0  0  0
 97129  1  0  0  0  0
 98130  1  0  0  0  0
101131  1  0  0  0  0
101132  1  0  0  0  0
101133  1  0  0  0  0
103134  1  0  0  0  0
104135  1  0  0  0  0
111136  1  0  0  0  0
111137  1  0  0  0  0
111138  1  0  0  0  0
112139  1  0  0  0  0
113140  1  0  0  0  0
114141  1  0  0  0  0
117142  1  0  0  0  0
117143  1  0  0  0  0
117144  1  0  0  0  0
 14146  4  0  0  0  0
145146  3  0  0  0  0
145147  4  0  0  0  0
 86148  4  0  0  0  0
147148  3  0  0  0  0
M  END
