 xtb: 6.5.1 (b24c23e)
          07302211313D

179208  0     0  0            999 V2000
   26.2614   -0.0095    0.0052 Zn  0  0  0  0  0  0  0  0  0  0  0  0
   22.8520   -0.0364   -0.0473 C   0  0  0  0  0  0  0  0  0  0  0  0
   23.4813   -1.2741   -0.1070 C   0  0  0  0  0  0  0  0  0  0  0  0
   22.8067   -2.5410   -0.1557 C   0  0  0  0  0  0  0  0  0  0  0  0
   23.7654   -3.5004   -0.1852 C   0  0  0  0  0  0  0  0  0  0  0  0
   25.0386   -2.8303   -0.1632 C   0  0  0  0  0  0  0  0  0  0  0  0
   24.8306   -1.4830   -0.1106 N   0  0  0  0  0  0  0  0  0  0  0  0
   26.2889   -3.4608   -0.1607 C   0  0  0  0  0  0  0  0  0  0  0  0
   27.5277   -2.8144   -0.0973 C   0  0  0  0  0  0  0  0  0  0  0  0
   28.8073   -3.4667   -0.1391 C   0  0  0  0  0  0  0  0  0  0  0  0
   29.7540   -2.4959   -0.0750 C   0  0  0  0  0  0  0  0  0  0  0  0
   27.7222   -1.4607   -0.0194 N   0  0  0  0  0  0  0  0  0  0  0  0
   29.0639   -1.2416   -0.0019 C   0  0  0  0  0  0  0  0  0  0  0  0
   29.6957    0.0173    0.0586 C   0  0  0  0  0  0  0  0  0  0  0  0
   29.0427    1.2660    0.1028 C   0  0  0  0  0  0  0  0  0  0  0  0
   29.7112    2.5336    0.1303 C   0  0  0  0  0  0  0  0  0  0  0  0
   28.7480    3.4898    0.1587 C   0  0  0  0  0  0  0  0  0  0  0  0
   27.4799    2.8142    0.1575 C   0  0  0  0  0  0  0  0  0  0  0  0
   26.2298    3.4419    0.1702 C   0  0  0  0  0  0  0  0  0  0  0  0
   26.2153    4.9251    0.2412 C   0  0  0  0  0  0  0  0  0  0  0  0
   25.6638    5.6777   -0.7966 C   0  0  0  0  0  0  0  0  0  0  0  0
   25.6521    7.0629   -0.7296 C   0  0  0  0  0  0  0  0  0  0  0  0
   26.1859    7.7131    0.3748 C   0  0  0  0  0  0  0  0  0  0  0  0
   26.7345    6.9716    1.4124 C   0  0  0  0  0  0  0  0  0  0  0  0
   26.7520    5.5864    1.3467 C   0  0  0  0  0  0  0  0  0  0  0  0
   24.9901    2.7923    0.1215 C   0  0  0  0  0  0  0  0  0  0  0  0
   23.7056    3.4382    0.1807 C   0  0  0  0  0  0  0  0  0  0  0  0
   22.7636    2.4641    0.1167 C   0  0  0  0  0  0  0  0  0  0  0  0
   23.4599    1.2113    0.0265 C   0  0  0  0  0  0  0  0  0  0  0  0
   24.8054    1.4432    0.0367 N   0  0  0  0  0  0  0  0  0  0  0  0
   27.6974    1.4625    0.1147 N   0  0  0  0  0  0  0  0  0  0  0  0
   26.2997   -4.9443   -0.2302 C   0  0  0  0  0  0  0  0  0  0  0  0
   25.7834   -5.6043   -1.3460 C   0  0  0  0  0  0  0  0  0  0  0  0
   25.7952   -6.9897   -1.4093 C   0  0  0  0  0  0  0  0  0  0  0  0
   26.3175   -7.7325   -0.3591 C   0  0  0  0  0  0  0  0  0  0  0  0
   26.8312   -7.0834    0.7555 C   0  0  0  0  0  0  0  0  0  0  0  0
   26.8251   -5.6980    0.8202 C   0  0  0  0  0  0  0  0  0  0  0  0
   21.7663   -0.0457   -0.0491 H   0  0  0  0  0  0  0  0  0  0  0  0
   21.7355   -2.6685   -0.1594 H   0  0  0  0  0  0  0  0  0  0  0  0
   23.6273   -4.5696   -0.2079 H   0  0  0  0  0  0  0  0  0  0  0  0
   28.9603   -4.5308   -0.2204 H   0  0  0  0  0  0  0  0  0  0  0  0
   30.8262   -2.6109   -0.0828 H   0  0  0  0  0  0  0  0  0  0  0  0
   30.7813    2.6673    0.1213 H   0  0  0  0  0  0  0  0  0  0  0  0
   28.8825    4.5595    0.1665 H   0  0  0  0  0  0  0  0  0  0  0  0
   25.2578    5.1721   -1.6658 H   0  0  0  0  0  0  0  0  0  0  0  0
   25.2252    7.6374   -1.5443 H   0  0  0  0  0  0  0  0  0  0  0  0
   26.1745    8.7959    0.4267 H   0  0  0  0  0  0  0  0  0  0  0  0
   27.1503    7.4745    2.2786 H   0  0  0  0  0  0  0  0  0  0  0  0
   27.1698    5.0087    2.1638 H   0  0  0  0  0  0  0  0  0  0  0  0
   23.5492    4.5011    0.2725 H   0  0  0  0  0  0  0  0  0  0  0  0
   21.6904    2.5721    0.1352 H   0  0  0  0  0  0  0  0  0  0  0  0
   25.3868   -5.0256   -2.1728 H   0  0  0  0  0  0  0  0  0  0  0  0
   25.3957   -7.4917   -2.2836 H   0  0  0  0  0  0  0  0  0  0  0  0
   26.3238   -8.8154   -0.4090 H   0  0  0  0  0  0  0  0  0  0  0  0
   27.2366   -7.6588    1.5801 H   0  0  0  0  0  0  0  0  0  0  0  0
   27.2153   -5.1930    1.6969 H   0  0  0  0  0  0  0  0  0  0  0  0
   58.3577    0.0440    0.0121 Zn  0  0  0  0  0  0  0  0  0  0  0  0
   61.7672    0.0713   -0.0435 C   0  0  0  0  0  0  0  0  0  0  0  0
   61.1386    1.3108   -0.0455 C   0  0  0  0  0  0  0  0  0  0  0  0
   61.8138    2.5783   -0.0365 C   0  0  0  0  0  0  0  0  0  0  0  0
   60.8557    3.5386   -0.0214 C   0  0  0  0  0  0  0  0  0  0  0  0
   59.5821    2.8688   -0.0297 C   0  0  0  0  0  0  0  0  0  0  0  0
   59.7894    1.5204   -0.0387 N   0  0  0  0  0  0  0  0  0  0  0  0
   58.3321    3.4991   -0.0001 C   0  0  0  0  0  0  0  0  0  0  0  0
   57.0929    2.8513    0.0321 C   0  0  0  0  0  0  0  0  0  0  0  0
   55.8138    3.5056    0.0157 C   0  0  0  0  0  0  0  0  0  0  0  0
   54.8665    2.5334    0.0340 C   0  0  0  0  0  0  0  0  0  0  0  0
   56.8976    1.4955    0.0499 N   0  0  0  0  0  0  0  0  0  0  0  0
   55.5558    1.2767    0.0541 C   0  0  0  0  0  0  0  0  0  0  0  0
   54.9232    0.0167    0.0593 C   0  0  0  0  0  0  0  0  0  0  0  0
   55.5755   -1.2330    0.0542 C   0  0  0  0  0  0  0  0  0  0  0  0
   54.9064   -2.5005    0.0312 C   0  0  0  0  0  0  0  0  0  0  0  0
   55.8692   -3.4575    0.0212 C   0  0  0  0  0  0  0  0  0  0  0  0
   57.1376   -2.7830    0.0461 C   0  0  0  0  0  0  0  0  0  0  0  0
   58.3874   -3.4111    0.0298 C   0  0  0  0  0  0  0  0  0  0  0  0
   58.4011   -4.8961    0.0380 C   0  0  0  0  0  0  0  0  0  0  0  0
   58.9469   -5.6044   -1.0334 C   0  0  0  0  0  0  0  0  0  0  0  0
   58.9577   -6.9912   -1.0252 C   0  0  0  0  0  0  0  0  0  0  0  0
   58.4288   -7.6871    0.0534 C   0  0  0  0  0  0  0  0  0  0  0  0
   57.8860   -6.9899    1.1242 C   0  0  0  0  0  0  0  0  0  0  0  0
   57.8693   -5.6032    1.1172 C   0  0  0  0  0  0  0  0  0  0  0  0
   59.6273   -2.7607    0.0051 C   0  0  0  0  0  0  0  0  0  0  0  0
   60.9115   -3.4094    0.0319 C   0  0  0  0  0  0  0  0  0  0  0  0
   61.8541   -2.4340    0.0078 C   0  0  0  0  0  0  0  0  0  0  0  0
   61.1585   -1.1780   -0.0248 C   0  0  0  0  0  0  0  0  0  0  0  0
   59.8128   -1.4093   -0.0212 N   0  0  0  0  0  0  0  0  0  0  0  0
   56.9207   -1.4305    0.0584 N   0  0  0  0  0  0  0  0  0  0  0  0
   58.3219    4.9843   -0.0034 C   0  0  0  0  0  0  0  0  0  0  0  0
   58.8388    5.6930   -1.0887 C   0  0  0  0  0  0  0  0  0  0  0  0
   58.8279    7.0798   -1.0905 C   0  0  0  0  0  0  0  0  0  0  0  0
   58.3061    7.7754   -0.0082 C   0  0  0  0  0  0  0  0  0  0  0  0
   57.7919    7.0777    1.0763 C   0  0  0  0  0  0  0  0  0  0  0  0
   57.7967    5.6909    1.0793 C   0  0  0  0  0  0  0  0  0  0  0  0
   62.8528    0.0800   -0.0470 H   0  0  0  0  0  0  0  0  0  0  0  0
   62.8852    2.7053   -0.0349 H   0  0  0  0  0  0  0  0  0  0  0  0
   60.9942    4.6076    0.0049 H   0  0  0  0  0  0  0  0  0  0  0  0
   55.6617    4.5724   -0.0189 H   0  0  0  0  0  0  0  0  0  0  0  0
   53.7943    2.6493    0.0281 H   0  0  0  0  0  0  0  0  0  0  0  0
   53.8362   -2.6333    0.0175 H   0  0  0  0  0  0  0  0  0  0  0  0
   55.7342   -4.5266   -0.0133 H   0  0  0  0  0  0  0  0  0  0  0  0
   59.3490   -5.0627   -1.8825 H   0  0  0  0  0  0  0  0  0  0  0  0
   59.3800   -7.5310   -1.8656 H   0  0  0  0  0  0  0  0  0  0  0  0
   58.4396   -8.7712    0.0594 H   0  0  0  0  0  0  0  0  0  0  0  0
   57.4742   -7.5287    1.9704 H   0  0  0  0  0  0  0  0  0  0  0  0
   57.4559   -5.0602    1.9599 H   0  0  0  0  0  0  0  0  0  0  0  0
   61.0674   -4.4754    0.0761 H   0  0  0  0  0  0  0  0  0  0  0  0
   62.9273   -2.5434    0.0180 H   0  0  0  0  0  0  0  0  0  0  0  0
   59.2357    5.1513   -1.9402 H   0  0  0  0  0  0  0  0  0  0  0  0
   59.2277    7.6199   -1.9416 H   0  0  0  0  0  0  0  0  0  0  0  0
   58.2999    8.8595   -0.0102 H   0  0  0  0  0  0  0  0  0  0  0  0
   57.3857    7.6162    1.9254 H   0  0  0  0  0  0  0  0  0  0  0  0
   57.4057    5.1476    1.9325 H   0  0  0  0  0  0  0  0  0  0  0  0
   34.8972    0.0424    0.0567 C   0  0  0  0  0  0  0  0  0  0  0  0
   33.6687    0.0400    0.0621 C   0  0  0  0  0  0  0  0  0  0  0  0
   32.3248    0.0350    0.0645 C   0  0  0  0  0  0  0  0  0  0  0  0
   31.1005    0.0282    0.0623 C   0  0  0  0  0  0  0  0  0  0  0  0
   36.2409    0.0428    0.0488 C   0  0  0  0  0  0  0  0  0  0  0  0
   37.4653    0.0428    0.0398 C   0  0  0  0  0  0  0  0  0  0  0  0
   50.9502    0.0030    0.0444 C   0  0  0  0  0  0  0  0  0  0  0  0
   49.7217    0.0043    0.0361 C   0  0  0  0  0  0  0  0  0  0  0  0
   48.3779    0.0081    0.0290 C   0  0  0  0  0  0  0  0  0  0  0  0
   47.1536    0.0122    0.0234 C   0  0  0  0  0  0  0  0  0  0  0  0
   52.2941    0.0040    0.0518 C   0  0  0  0  0  0  0  0  0  0  0  0
   53.5183    0.0071    0.0569 C   0  0  0  0  0  0  0  0  0  0  0  0
   42.3094    0.0283    0.0198 Zn  0  0  0  0  0  0  0  0  0  0  0  0
   38.8694    0.0390    0.0320 C   0  0  0  0  0  0  0  0  0  0  0  0
   39.5095   -1.2174    0.0236 C   0  0  0  0  0  0  0  0  0  0  0  0
   38.8285   -2.4778    0.0502 C   0  0  0  0  0  0  0  0  0  0  0  0
   39.7818   -3.4444    0.0241 C   0  0  0  0  0  0  0  0  0  0  0  0
   41.0547   -2.7817   -0.0265 C   0  0  0  0  0  0  0  0  0  0  0  0
   40.8521   -1.4273   -0.0166 N   0  0  0  0  0  0  0  0  0  0  0  0
   42.2982   -3.4215   -0.0579 C   0  0  0  0  0  0  0  0  0  0  0  0
   43.5460   -2.7892   -0.0583 C   0  0  0  0  0  0  0  0  0  0  0  0
   44.8147   -3.4573   -0.1355 C   0  0  0  0  0  0  0  0  0  0  0  0
   45.7744   -2.4968   -0.1127 C   0  0  0  0  0  0  0  0  0  0  0  0
   43.7572   -1.4371   -0.0052 N   0  0  0  0  0  0  0  0  0  0  0  0
   45.1013   -1.2345   -0.0304 C   0  0  0  0  0  0  0  0  0  0  0  0
   45.7494    0.0167    0.0200 C   0  0  0  0  0  0  0  0  0  0  0  0
   45.1093    1.2722    0.0675 C   0  0  0  0  0  0  0  0  0  0  0  0
   45.7907    2.5300    0.1486 C   0  0  0  0  0  0  0  0  0  0  0  0
   44.8375    3.4970    0.1681 C   0  0  0  0  0  0  0  0  0  0  0  0
   43.5643    2.8376    0.0897 C   0  0  0  0  0  0  0  0  0  0  0  0
   42.3206    3.4784    0.0878 C   0  0  0  0  0  0  0  0  0  0  0  0
   42.3260    4.9633    0.1154 C   0  0  0  0  0  0  0  0  0  0  0  0
   41.7610    5.6532    1.1888 C   0  0  0  0  0  0  0  0  0  0  0  0
   41.7701    7.0398    1.2144 C   0  0  0  0  0  0  0  0  0  0  0  0
   42.3380    7.7537    0.1679 C   0  0  0  0  0  0  0  0  0  0  0  0
   42.8998    7.0748   -0.9048 C   0  0  0  0  0  0  0  0  0  0  0  0
   42.8970    5.6882   -0.9314 C   0  0  0  0  0  0  0  0  0  0  0  0
   41.0727    2.8464    0.0632 C   0  0  0  0  0  0  0  0  0  0  0  0
   39.8035    3.5165    0.0148 C   0  0  0  0  0  0  0  0  0  0  0  0
   38.8441    2.5556    0.0018 C   0  0  0  0  0  0  0  0  0  0  0  0
   39.5175    1.2912    0.0319 C   0  0  0  0  0  0  0  0  0  0  0  0
   40.8617    1.4932    0.0623 N   0  0  0  0  0  0  0  0  0  0  0  0
   43.7666    1.4840    0.0393 N   0  0  0  0  0  0  0  0  0  0  0  0
   42.2930   -4.9066   -0.0924 C   0  0  0  0  0  0  0  0  0  0  0  0
   41.7370   -5.5867   -1.1765 C   0  0  0  0  0  0  0  0  0  0  0  0
   41.7352   -6.9732   -1.2082 C   0  0  0  0  0  0  0  0  0  0  0  0
   42.2818   -7.6962   -0.1568 C   0  0  0  0  0  0  0  0  0  0  0  0
   42.8342   -7.0268    0.9267 C   0  0  0  0  0  0  0  0  0  0  0  0
   42.8434   -5.6403    0.9590 C   0  0  0  0  0  0  0  0  0  0  0  0
   37.7578   -2.6003    0.0902 H   0  0  0  0  0  0  0  0  0  0  0  0
   39.6377   -4.5126    0.0484 H   0  0  0  0  0  0  0  0  0  0  0  0
   44.9520   -4.5241   -0.2091 H   0  0  0  0  0  0  0  0  0  0  0  0
   46.8444   -2.6242   -0.1544 H   0  0  0  0  0  0  0  0  0  0  0  0
   46.8615    2.6504    0.1922 H   0  0  0  0  0  0  0  0  0  0  0  0
   44.9825    4.5628    0.2413 H   0  0  0  0  0  0  0  0  0  0  0  0
   41.3280    5.0969    2.0128 H   0  0  0  0  0  0  0  0  0  0  0  0
   41.3325    7.5652    2.0561 H   0  0  0  0  0  0  0  0  0  0  0  0
   42.3429    8.8376    0.1885 H   0  0  0  0  0  0  0  0  0  0  0  0
   43.3422    7.6278   -1.7261 H   0  0  0  0  0  0  0  0  0  0  0  0
   43.3256    5.1596   -1.7757 H   0  0  0  0  0  0  0  0  0  0  0  0
   39.6652    4.5852   -0.0175 H   0  0  0  0  0  0  0  0  0  0  0  0
   37.7740    2.6842   -0.0326 H   0  0  0  0  0  0  0  0  0  0  0  0
   41.3193   -5.0230   -2.0034 H   0  0  0  0  0  0  0  0  0  0  0  0
   41.3054   -7.4914   -2.0583 H   0  0  0  0  0  0  0  0  0  0  0  0
   42.2774   -8.7801   -0.1817 H   0  0  0  0  0  0  0  0  0  0  0  0
   43.2595   -7.5870    1.7521 H   0  0  0  0  0  0  0  0  0  0  0  0
   43.2652   -5.1186    1.8109 H   0  0  0  0  0  0  0  0  0  0  0  0
  2  3  4  0  0  0  0
  3  4  1  0  0  0  0
  4  5  2  0  0  0  0
  5  6  4  0  0  0  0
  1  7  1  0  0  0  0
  3  7  4  0  0  0  0
  6  7  4  0  0  0  0
  6  8  4  0  0  0  0
  8  9  4  0  0  0  0
  9 10  4  0  0  0  0
 10 11  2  0  0  0  0
  1 12  1  0  0  0  0
  9 12  4  0  0  0  0
 11 13  4  0  0  0  0
 12 13  4  0  0  0  0
 13 14  4  0  0  0  0
 14 15  4  0  0  0  0
 15 16  4  0  0  0  0
 16 17  2  0  0  0  0
 17 18  4  0  0  0  0
 18 19  4  0  0  0  0
 19 20  1  0  0  0  0
 20 21  4  0  0  0  0
 21 22  4  0  0  0  0
 22 23  4  0  0  0  0
 23 24  4  0  0  0  0
 20 25  4  0  0  0  0
 24 25  4  0  0  0  0
 19 26  4  0  0  0  0
 26 27  4  0  0  0  0
 27 28  2  0  0  0  0
  2 29  4  0  0  0  0
 28 29  1  0  0  0  0
  1 30  1  0  0  0  0
 26 30  4  0  0  0  0
 29 30  4  0  0  0  0
  1 31  1  0  0  0  0
 15 31  4  0  0  0  0
 18 31  4  0  0  0  0
  8 32  1  0  0  0  0
 32 33  4  0  0  0  0
 33 34  4  0  0  0  0
 34 35  4  0  0  0  0
 35 36  4  0  0  0  0
 32 37  4  0  0  0  0
 36 37  4  0  0  0  0
  2 38  1  0  0  0  0
  4 39  1  0  0  0  0
  5 40  1  0  0  0  0
 10 41  1  0  0  0  0
 11 42  1  0  0  0  0
 16 43  1  0  0  0  0
 17 44  1  0  0  0  0
 21 45  1  0  0  0  0
 22 46  1  0  0  0  0
 23 47  1  0  0  0  0
 24 48  1  0  0  0  0
 25 49  1  0  0  0  0
 27 50  1  0  0  0  0
 28 51  1  0  0  0  0
 33 52  1  0  0  0  0
 34 53  1  0  0  0  0
 35 54  1  0  0  0  0
 36 55  1  0  0  0  0
 37 56  1  0  0  0  0
 58 59  4  0  0  0  0
 59 60  1  0  0  0  0
 60 61  2  0  0  0  0
 61 62  4  0  0  0  0
 57 63  1  0  0  0  0
 59 63  4  0  0  0  0
 62 63  4  0  0  0  0
 62 64  4  0  0  0  0
 64 65  4  0  0  0  0
 65 66  4  0  0  0  0
 66 67  2  0  0  0  0
 57 68  1  0  0  0  0
 65 68  4  0  0  0  0
 67 69  4  0  0  0  0
 68 69  4  0  0  0  0
 69 70  4  0  0  0  0
 70 71  4  0  0  0  0
 71 72  4  0  0  0  0
 72 73  2  0  0  0  0
 73 74  4  0  0  0  0
 74 75  4  0  0  0  0
 75 76  1  0  0  0  0
 76 77  4  0  0  0  0
 77 78  4  0  0  0  0
 78 79  4  0  0  0  0
 79 80  4  0  0  0  0
 76 81  4  0  0  0  0
 80 81  4  0  0  0  0
 75 82  4  0  0  0  0
 82 83  4  0  0  0  0
 83 84  2  0  0  0  0
 58 85  4  0  0  0  0
 84 85  1  0  0  0  0
 57 86  1  0  0  0  0
 82 86  4  0  0  0  0
 85 86  4  0  0  0  0
 57 87  1  0  0  0  0
 71 87  4  0  0  0  0
 74 87  4  0  0  0  0
 64 88  1  0  0  0  0
 88 89  4  0  0  0  0
 89 90  4  0  0  0  0
 90 91  4  0  0  0  0
 91 92  4  0  0  0  0
 88 93  4  0  0  0  0
 92 93  4  0  0  0  0
 58 94  1  0  0  0  0
 60 95  1  0  0  0  0
 61 96  1  0  0  0  0
 66 97  1  0  0  0  0
 67 98  1  0  0  0  0
 72 99  1  0  0  0  0
 73100  1  0  0  0  0
 77101  1  0  0  0  0
 78102  1  0  0  0  0
 79103  1  0  0  0  0
 80104  1  0  0  0  0
 81105  1  0  0  0  0
 83106  1  0  0  0  0
 84107  1  0  0  0  0
 89108  1  0  0  0  0
 90109  1  0  0  0  0
 91110  1  0  0  0  0
 92111  1  0  0  0  0
 93112  1  0  0  0  0
113114  3  0  0  0  0
114115  4  0  0  0  0
 14116  4  0  0  0  0
115116  3  0  0  0  0
113117  4  0  0  0  0
117118  3  0  0  0  0
119120  3  0  0  0  0
120121  4  0  0  0  0
121122  3  0  0  0  0
119123  4  0  0  0  0
 70124  4  0  0  0  0
123124  3  0  0  0  0
118126  4  0  0  0  0
126127  4  0  0  0  0
127128  4  0  0  0  0
128129  2  0  0  0  0
129130  4  0  0  0  0
125131  1  0  0  0  0
127131  4  0  0  0  0
130131  4  0  0  0  0
130132  4  0  0  0  0
132133  4  0  0  0  0
133134  4  0  0  0  0
134135  2  0  0  0  0
125136  1  0  0  0  0
133136  4  0  0  0  0
135137  4  0  0  0  0
136137  4  0  0  0  0
122138  4  0  0  0  0
137138  4  0  0  0  0
138139  4  0  0  0  0
139140  4  0  0  0  0
140141  2  0  0  0  0
141142  4  0  0  0  0
142143  4  0  0  0  0
143144  1  0  0  0  0
144145  4  0  0  0  0
145146  4  0  0  0  0
146147  4  0  0  0  0
147148  4  0  0  0  0
144149  4  0  0  0  0
148149  4  0  0  0  0
143150  4  0  0  0  0
150151  4  0  0  0  0
151152  2  0  0  0  0
126153  4  0  0  0  0
152153  4  0  0  0  0
125154  1  0  0  0  0
150154  4  0  0  0  0
153154  4  0  0  0  0
125155  1  0  0  0  0
139155  4  0  0  0  0
142155  4  0  0  0  0
132156  1  0  0  0  0
156157  4  0  0  0  0
157158  4  0  0  0  0
158159  4  0  0  0  0
159160  4  0  0  0  0
156161  4  0  0  0  0
160161  4  0  0  0  0
128162  1  0  0  0  0
129163  1  0  0  0  0
134164  1  0  0  0  0
135165  1  0  0  0  0
140166  1  0  0  0  0
141167  1  0  0  0  0
145168  1  0  0  0  0
146169  1  0  0  0  0
147170  1  0  0  0  0
148171  1  0  0  0  0
149172  1  0  0  0  0
151173  1  0  0  0  0
152174  1  0  0  0  0
157175  1  0  0  0  0
158176  1  0  0  0  0
159177  1  0  0  0  0
160178  1  0  0  0  0
161179  1  0  0  0  0
M  END
