179

Zn 24.561960 0.061326 0.012560
C 21.225397 -0.094744 0.002147
C 21.889506 -1.246948 -0.125682
C 21.239827 -2.543689 -0.276071
C 22.181656 -3.467402 -0.323464
C 23.486486 -2.802981 -0.203996
N 23.308199 -1.391402 -0.083559
C 24.676689 -3.434708 -0.158816
C 25.970322 -2.718670 -0.008348
C 27.260865 -3.393468 0.176564
C 28.195581 -2.466992 0.234358
N 26.110940 -1.429615 -0.068316
C 27.510445 -1.189579 0.078956
C 28.105019 0.012849 0.008268
C 27.344004 1.270433 -0.170642
C 27.880972 2.415504 -0.572847
C 26.837237 3.420254 -0.530789
C 25.731220 2.823809 -0.101495
C 24.446111 3.525823 0.149708
C 24.465231 5.000624 0.307668
C 23.805968 5.826576 -0.618580
C 23.844670 7.216689 -0.473482
C 24.546225 7.790648 0.590493
C 25.212269 6.975415 1.509991
C 25.175474 5.584762 1.369068
C 23.281064 2.855820 0.238410
C 21.968704 3.436757 0.517194
C 21.107112 2.439684 0.464710
C 21.860093 1.222736 0.166427
N 23.128244 1.452844 0.032994
N 25.960979 1.435183 0.145528
C 24.715470 -4.909617 -0.250723
C 24.614481 -5.541769 -1.499619
C 24.652574 -6.937017 -1.584211
C 24.792489 -7.705550 -0.424611
C 24.894338 -7.079968 0.821639
C 24.855956 -5.685017 0.910491
H 20.141995 -0.123344 -0.000842
H 20.175501 -2.733406 -0.330595
H 21.996223 -4.529268 -0.421248
H 27.438284 -4.458319 0.248669
H 29.254251 -2.651476 0.359209
H 28.910312 2.583186 -0.860008
H 26.950088 4.466897 -0.782207
H 23.267109 5.393264 -1.452260
H 23.333398 7.849128 -1.187636
H 24.576126 8.866917 0.700787
H 25.758070 7.421175 2.331463
H 25.696564 4.962868 2.086687
H 21.723860 4.468966 0.730131
H 20.039836 2.521153 0.623585
H 24.506406 -4.954219 -2.403079
H 24.574010 -7.422480 -2.548334
H 24.822127 -8.785369 -0.491749
H 25.002935 -7.675977 1.718496
H 24.935593 -5.208732 1.880001
Zn 60.067359 -0.035768 0.010451
C 63.403922 0.120607 0.006825
C 62.739813 1.277275 -0.070852
C 63.389491 2.579323 -0.164794
C 62.447662 3.504223 -0.172032
C 61.142833 2.835241 -0.081527
N 61.321119 1.419764 -0.022498
C 59.952630 3.464410 -0.008959
C 58.658997 2.742514 0.110275
C 57.368454 3.408646 0.324314
C 56.433738 2.480534 0.341824
N 58.518379 1.457279 -0.005609
C 57.118873 1.211074 0.131102
C 56.524300 0.012849 0.008268
C 57.285314 -1.235779 -0.225080
C 56.748346 -2.362306 -0.676626
C 57.792081 -3.367935 -0.678236
C 58.898099 -2.790693 -0.223449
C 60.183207 -3.502953 -0.002966
C 60.164087 -4.983221 0.090807
C 60.823350 -5.768175 -0.870431
C 60.784648 -7.163277 -0.785832
C 60.083093 -7.782895 0.252217
C 59.417050 -7.008357 1.206247
C 59.453844 -5.612896 1.125842
C 61.348255 -2.837433 0.114746
C 62.660614 -3.429927 0.368041
C 63.522207 -2.431516 0.358902
C 62.769225 -1.202764 0.113742
N 61.501074 -1.426860 -0.029557
N 58.668340 -1.414103 0.083638
C 59.913849 4.941919 -0.036736
C 60.014837 5.627704 -1.257005
C 59.976745 7.025309 -1.280933
C 59.836829 7.742766 -0.089056
C 59.734981 7.063659 1.128855
C 59.773362 5.666166 1.157052
H 64.487323 0.149310 0.005080
H 64.453817 2.771229 -0.211028
H 62.633095 4.569333 -0.223616
H 57.191034 4.469362 0.442589
H 55.375068 2.659423 0.474568
H 55.719006 -2.517361 -0.970798
H 57.679231 -4.402674 -0.974865
H 61.362210 -5.299072 -1.684511
H 61.295920 -7.764110 -1.526774
H 60.053193 -8.862938 0.315674
H 58.871248 -7.489367 2.007589
H 58.932755 -5.022750 1.869788
H 62.905459 -4.470409 0.535958
H 64.589483 -2.519807 0.514089
H 60.122912 5.079938 -2.185125
H 60.055309 7.552178 -2.223067
H 59.807191 8.824481 -0.109243
H 59.626383 7.620163 2.050746
H 59.693725 5.148232 2.104966
C 34.720064 0.013720 0.016822
C 33.511125 0.000265 0.008375
C 32.089596 0.009084 -0.003609
C 30.877926 0.016523 0.007254
C 36.136668 0.007045 0.017355
C 37.357364 0.016523 0.007254
C 51.116773 0.013720 0.016822
C 49.907834 0.000265 0.008375
C 48.486305 0.009084 -0.003609
C 47.274635 0.016523 0.007254
C 52.533377 0.007045 0.017355
C 53.754073 0.016523 0.007254
Zn 42.240991 0.067188 0.023138
C 38.866784 -0.029771 -0.018419
C 39.525605 -1.202842 -0.023227
C 38.880157 -2.517531 -0.011306
C 39.819903 -3.440214 -0.019585
C 41.123567 -2.770296 -0.040974
N 40.947631 -1.351776 -0.040055
C 42.310097 -3.409544 -0.059419
C 43.619220 -2.713454 -0.085097
C 44.904182 -3.417045 -0.183126
C 45.858828 -2.512851 -0.177422
N 43.780137 -1.426705 -0.021132
C 45.192689 -1.219481 -0.073632
C 45.814755 -0.029771 -0.018419
C 45.090427 1.258585 0.095714
C 45.691173 2.431002 0.250126
C 44.660604 3.443829 0.289720
C 43.491200 2.830244 0.149948
C 42.184389 3.539647 0.113885
C 42.193552 5.021815 0.136533
C 41.825918 5.714316 1.301589
C 41.849968 7.112123 1.325046
C 42.246683 7.824228 0.188941
C 42.617086 7.139868 -0.972619
C 42.592885 5.741759 -1.000607
C 41.002289 2.894589 0.061287
C 39.693630 3.538297 -0.004012
C 38.807942 2.566928 -0.045246
C 39.536239 1.294062 -0.008258
N 40.821004 1.477097 0.052691
N 43.670198 1.417284 0.025510
C 42.331879 -4.888190 -0.065526
C 42.191214 -5.591710 -1.271920
C 42.228874 -6.989402 -1.276248
C 42.408031 -7.689062 -0.079131
C 42.548439 -6.991835 1.124865
C 42.513002 -5.594233 1.133147
H 37.819880 -2.731565 0.005043
H 39.633596 -4.506536 -0.008809
H 45.060687 -4.485034 -0.253459
H 46.917971 -2.723016 -0.240212
H 46.753931 2.614913 0.327765
H 44.826360 4.505860 0.403918
H 41.525588 5.171534 2.188867
H 41.564347 7.643906 2.224256
H 42.267167 8.905884 0.210465
H 42.926516 7.692228 -1.850494
H 42.886564 5.220360 -1.903450
H 39.466383 4.596854 -0.022013
H 37.737805 2.712264 -0.099945
H 42.055950 -5.057645 -2.204113
H 42.121686 -7.530442 -2.207456
H 42.438822 -8.770534 -0.084005
H 42.687178 -7.535306 2.050775
H 42.626430 -5.061648 2.069098
