 xtb: 6.5.1 (b24c23e)
          07302210433D

236275  0     0  0            999 V2000
   52.2583   -0.4469   -0.3161 Zn  0  0  0  0  0  0  0  0  0  0  0  0
   48.8399   -0.4257   -0.3123 C   0  0  0  0  0  0  0  0  0  0  0  0
   49.4646    0.3242    0.6769 C   0  0  0  0  0  0  0  0  0  0  0  0
   48.7903    1.0973    1.6821 C   0  0  0  0  0  0  0  0  0  0  0  0
   49.7500    1.6692    2.4529 C   0  0  0  0  0  0  0  0  0  0  0  0
   51.0184    1.2484    1.9265 C   0  0  0  0  0  0  0  0  0  0  0  0
   50.8159    0.4393    0.8535 N   0  0  0  0  0  0  0  0  0  0  0  0
   52.2730    1.6111    2.4509 C   0  0  0  0  0  0  0  0  0  0  0  0
   52.2788    2.4758    3.5676 C   0  0  0  0  0  0  0  0  0  0  0  0
   52.2818    3.2322    4.5168 C   0  0  0  0  0  0  0  0  0  0  0  0
   52.2791    4.1190    5.6173 C   0  0  0  0  0  0  0  0  0  0  0  0
   53.4725    4.5551    6.2052 C   0  0  0  0  0  0  0  0  0  0  0  0
   53.4121    5.4287    7.2762 C   0  0  0  0  0  0  0  0  0  0  0  0
   52.2679    5.8813    7.7830 N   0  0  0  0  0  0  0  0  0  0  0  0
   51.1289    5.4709    7.2302 C   0  0  0  0  0  0  0  0  0  0  0  0
   51.0799    4.5994    6.1572 C   0  0  0  0  0  0  0  0  0  0  0  0
   53.5214    1.1929    1.9546 C   0  0  0  0  0  0  0  0  0  0  0  0
   54.7907    1.5554    2.5151 C   0  0  0  0  0  0  0  0  0  0  0  0
   55.7457    0.9672    1.7488 C   0  0  0  0  0  0  0  0  0  0  0  0
   53.7192    0.3940    0.8680 N   0  0  0  0  0  0  0  0  0  0  0  0
   55.0658    0.2443    0.7138 C   0  0  0  0  0  0  0  0  0  0  0  0
   55.6985   -0.4715   -0.3176 C   0  0  0  0  0  0  0  0  0  0  0  0
   55.0548   -1.1795   -1.3478 C   0  0  0  0  0  0  0  0  0  0  0  0
   55.7235   -1.9155   -2.3809 C   0  0  0  0  0  0  0  0  0  0  0  0
   54.7595   -2.4911   -3.1455 C   0  0  0  0  0  0  0  0  0  0  0  0
   53.4959   -2.1077   -2.5859 C   0  0  0  0  0  0  0  0  0  0  0  0
   53.7061   -1.3091   -1.5013 N   0  0  0  0  0  0  0  0  0  0  0  0
   52.2412   -2.5090   -3.0801 C   0  0  0  0  0  0  0  0  0  0  0  0
   52.2331   -3.3742   -4.1965 C   0  0  0  0  0  0  0  0  0  0  0  0
   52.2234   -4.1282   -5.1475 C   0  0  0  0  0  0  0  0  0  0  0  0
   52.2092   -5.0114   -6.2508 C   0  0  0  0  0  0  0  0  0  0  0  0
   53.3975   -5.4528   -6.8449 C   0  0  0  0  0  0  0  0  0  0  0  0
   53.3276   -6.3200   -7.9204 C   0  0  0  0  0  0  0  0  0  0  0  0
   52.1786   -6.7620   -8.4257 N   0  0  0  0  0  0  0  0  0  0  0  0
   51.0444   -6.3475   -7.8663 C   0  0  0  0  0  0  0  0  0  0  0  0
   51.0049   -5.4815   -6.7883 C   0  0  0  0  0  0  0  0  0  0  0  0
   50.9925   -2.1294   -2.5538 C   0  0  0  0  0  0  0  0  0  0  0  0
   49.7178   -2.5376   -3.0749 C   0  0  0  0  0  0  0  0  0  0  0  0
   48.7669   -1.9524   -2.3031 C   0  0  0  0  0  0  0  0  0  0  0  0
   49.4530   -1.1837   -1.3023 C   0  0  0  0  0  0  0  0  0  0  0  0
   50.8024   -1.3146   -1.4827 N   0  0  0  0  0  0  0  0  0  0  0  0
   47.7542   -0.4193   -0.3107 H   0  0  0  0  0  0  0  0  0  0  0  0
   47.7191    1.1836    1.7763 H   0  0  0  0  0  0  0  0  0  0  0  0
   49.6220    2.3175    3.3055 H   0  0  0  0  0  0  0  0  0  0  0  0
   54.4269    4.2124    5.8240 H   0  0  0  0  0  0  0  0  0  0  0  0
   54.3225    5.7836    7.7507 H   0  0  0  0  0  0  0  0  0  0  0  0
   50.2137    5.8594    7.6678 H   0  0  0  0  0  0  0  0  0  0  0  0
   50.1299    4.2915    5.7371 H   0  0  0  0  0  0  0  0  0  0  0  0
   54.9253    2.1800    3.3840 H   0  0  0  0  0  0  0  0  0  0  0  0
   56.8167    1.0161    1.8657 H   0  0  0  0  0  0  0  0  0  0  0  0
   56.7937   -1.9818   -2.4971 H   0  0  0  0  0  0  0  0  0  0  0  0
   54.8846   -3.1207   -4.0122 H   0  0  0  0  0  0  0  0  0  0  0  0
   54.3555   -5.1184   -6.4652 H   0  0  0  0  0  0  0  0  0  0  0  0
   54.2340   -6.6781   -8.4002 H   0  0  0  0  0  0  0  0  0  0  0  0
   50.1252   -6.7277   -8.3027 H   0  0  0  0  0  0  0  0  0  0  0  0
   50.0584   -5.1699   -6.3633 H   0  0  0  0  0  0  0  0  0  0  0  0
   49.5799   -3.1877   -3.9245 H   0  0  0  0  0  0  0  0  0  0  0  0
   47.6946   -2.0275   -2.3933 H   0  0  0  0  0  0  0  0  0  0  0  0
   85.0527   -0.5663   -0.3733 Zn  0  0  0  0  0  0  0  0  0  0  0  0
   88.4722   -0.5283   -0.3590 C   0  0  0  0  0  0  0  0  0  0  0  0
   87.8674   -1.7750   -0.4618 C   0  0  0  0  0  0  0  0  0  0  0  0
   88.5619   -3.0279   -0.5650 C   0  0  0  0  0  0  0  0  0  0  0  0
   87.6174   -3.9999   -0.6401 C   0  0  0  0  0  0  0  0  0  0  0  0
   86.3385   -3.3491   -0.5815 C   0  0  0  0  0  0  0  0  0  0  0  0
   86.5194   -2.0063   -0.4763 N   0  0  0  0  0  0  0  0  0  0  0  0
   85.0939   -4.0055   -0.6194 C   0  0  0  0  0  0  0  0  0  0  0  0
   85.1146   -5.4126   -0.7397 C   0  0  0  0  0  0  0  0  0  0  0  0
   85.1407   -6.6207   -0.8537 C   0  0  0  0  0  0  0  0  0  0  0  0
   85.1786   -8.0268   -0.9910 C   0  0  0  0  0  0  0  0  0  0  0  0
   84.0039   -8.7867   -1.0421 C   0  0  0  0  0  0  0  0  0  0  0  0
   84.0994  -10.1597   -1.1823 C   0  0  0  0  0  0  0  0  0  0  0  0
   85.2605  -10.8035   -1.2721 N   0  0  0  0  0  0  0  0  0  0  0  0
   86.3819  -10.0884   -1.2240 C   0  0  0  0  0  0  0  0  0  0  0  0
   86.3959   -8.7121   -1.0858 C   0  0  0  0  0  0  0  0  0  0  0  0
   83.8348   -3.3816   -0.5539 C   0  0  0  0  0  0  0  0  0  0  0  0
   82.5764   -4.0682   -0.5832 C   0  0  0  0  0  0  0  0  0  0  0  0
   81.6055   -3.1206   -0.5120 C   0  0  0  0  0  0  0  0  0  0  0  0
   83.6145   -2.0390   -0.4631 N   0  0  0  0  0  0  0  0  0  0  0  0
   82.2648   -1.8495   -0.4402 C   0  0  0  0  0  0  0  0  0  0  0  0
   81.6111   -0.6044   -0.3886 C   0  0  0  0  0  0  0  0  0  0  0  0
   82.2370    0.6548   -0.3299 C   0  0  0  0  0  0  0  0  0  0  0  0
   81.5493    1.9108   -0.2587 C   0  0  0  0  0  0  0  0  0  0  0  0
   82.4983    2.8793   -0.1765 C   0  0  0  0  0  0  0  0  0  0  0  0
   83.7718    2.2209   -0.1984 C   0  0  0  0  0  0  0  0  0  0  0  0
   83.5819    0.8740   -0.2956 N   0  0  0  0  0  0  0  0  0  0  0  0
   85.0161    2.8726   -0.1211 C   0  0  0  0  0  0  0  0  0  0  0  0
   85.0023    4.2792    0.0073 C   0  0  0  0  0  0  0  0  0  0  0  0
   84.9959    5.4868    0.1283 C   0  0  0  0  0  0  0  0  0  0  0  0
   84.9910    6.8921    0.2781 C   0  0  0  0  0  0  0  0  0  0  0  0
   83.7931    7.6144    0.3348 C   0  0  0  0  0  0  0  0  0  0  0  0
   83.8452    8.9881    0.4894 C   0  0  0  0  0  0  0  0  0  0  0  0
   84.9856    9.6670    0.5880 N   0  0  0  0  0  0  0  0  0  0  0  0
   86.1288    8.9878    0.5345 C   0  0  0  0  0  0  0  0  0  0  0  0
   86.1861    7.6141    0.3820 C   0  0  0  0  0  0  0  0  0  0  0  0
   86.2752    2.2445   -0.1517 C   0  0  0  0  0  0  0  0  0  0  0  0
   87.5389    2.9234   -0.0823 C   0  0  0  0  0  0  0  0  0  0  0  0
   88.5051    1.9726   -0.1511 C   0  0  0  0  0  0  0  0  0  0  0  0
   87.8393    0.7047   -0.2610 C   0  0  0  0  0  0  0  0  0  0  0  0
   86.4865    0.9062   -0.2573 N   0  0  0  0  0  0  0  0  0  0  0  0
   89.5579   -0.5164   -0.3544 H   0  0  0  0  0  0  0  0  0  0  0  0
   89.6350   -3.1374   -0.5775 H   0  0  0  0  0  0  0  0  0  0  0  0
   87.7627   -5.0653   -0.7259 H   0  0  0  0  0  0  0  0  0  0  0  0
   83.0368   -8.3035   -0.9733 H   0  0  0  0  0  0  0  0  0  0  0  0
   83.2041  -10.7734   -1.2250 H   0  0  0  0  0  0  0  0  0  0  0  0
   87.3117  -10.6448   -1.3002 H   0  0  0  0  0  0  0  0  0  0  0  0
   87.3326   -8.1689   -1.0516 H   0  0  0  0  0  0  0  0  0  0  0  0
   82.4590   -5.1382   -0.6504 H   0  0  0  0  0  0  0  0  0  0  0  0
   80.5364   -3.2623   -0.5122 H   0  0  0  0  0  0  0  0  0  0  0  0
   80.4774    2.0293   -0.2659 H   0  0  0  0  0  0  0  0  0  0  0  0
   82.3566    3.9461   -0.1060 H   0  0  0  0  0  0  0  0  0  0  0  0
   82.8417    7.1019    0.2594 H   0  0  0  0  0  0  0  0  0  0  0  0
   82.9311    9.5730    0.5371 H   0  0  0  0  0  0  0  0  0  0  0  0
   87.0406    9.5722    0.6183 H   0  0  0  0  0  0  0  0  0  0  0  0
   87.1395    7.1009    0.3442 H   0  0  0  0  0  0  0  0  0  0  0  0
   87.6598    3.9916    0.0058 H   0  0  0  0  0  0  0  0  0  0  0  0
   89.5754    2.1056   -0.1300 H   0  0  0  0  0  0  0  0  0  0  0  0
   57.1127   -0.4800   -0.3190 C   0  0  0  0  0  0  0  0  0  0  0  0
   58.3278   -0.4858   -0.3205 C   0  0  0  0  0  0  0  0  0  0  0  0
   68.0472   -0.5442   -0.3501 C   0  0  0  0  0  0  0  0  0  0  0  0
   69.2639   -0.5596   -0.3519 C   0  0  0  0  0  0  0  0  0  0  0  0
   78.9835   -0.6231   -0.3982 C   0  0  0  0  0  0  0  0  0  0  0  0
   80.1994   -0.6178   -0.3932 C   0  0  0  0  0  0  0  0  0  0  0  0
   63.1879   -0.5109   -0.3347 Zn  0  0  0  0  0  0  0  0  0  0  0  0
   59.7418   -0.4927   -0.3239 C   0  0  0  0  0  0  0  0  0  0  0  0
   60.3801   -0.0738   -1.5044 C   0  0  0  0  0  0  0  0  0  0  0  0
   59.7053    0.3699   -2.6889 C   0  0  0  0  0  0  0  0  0  0  0  0
   60.6650    0.7262   -3.5821 C   0  0  0  0  0  0  0  0  0  0  0  0
   61.9310    0.4996   -2.9488 C   0  0  0  0  0  0  0  0  0  0  0  0
   61.7280    0.0105   -1.6929 N   0  0  0  0  0  0  0  0  0  0  0  0
   63.1833    0.7530   -3.5373 C   0  0  0  0  0  0  0  0  0  0  0  0
   63.1822    1.2873   -4.8452 C   0  0  0  0  0  0  0  0  0  0  0  0
   63.1817    1.7596   -5.9631 C   0  0  0  0  0  0  0  0  0  0  0  0
   63.1772    2.3114   -7.2644 C   0  0  0  0  0  0  0  0  0  0  0  0
   64.3709    2.6147   -7.9300 C   0  0  0  0  0  0  0  0  0  0  0  0
   64.3105    3.1576   -9.2010 C   0  0  0  0  0  0  0  0  0  0  0  0
   63.1658    3.4094   -9.8313 N   0  0  0  0  0  0  0  0  0  0  0  0
   62.0267    3.1234   -9.2056 C   0  0  0  0  0  0  0  0  0  0  0  0
   61.9776    2.5789   -7.9349 C   0  0  0  0  0  0  0  0  0  0  0  0
   64.4364    0.5254   -2.9405 C   0  0  0  0  0  0  0  0  0  0  0  0
   65.6999    0.7717   -3.5702 C   0  0  0  0  0  0  0  0  0  0  0  0
   66.6621    0.4120   -2.6811 C   0  0  0  0  0  0  0  0  0  0  0  0
   64.6448    0.0283   -1.6875 N   0  0  0  0  0  0  0  0  0  0  0  0
   65.9927   -0.0512   -1.5018 C   0  0  0  0  0  0  0  0  0  0  0  0
   66.6371   -0.5323   -0.3454 C   0  0  0  0  0  0  0  0  0  0  0  0
   65.9945   -1.0048    0.8155 C   0  0  0  0  0  0  0  0  0  0  0  0
   66.6660   -1.4789    1.9893 C   0  0  0  0  0  0  0  0  0  0  0  0
   65.7052   -1.8280    2.8842 C   0  0  0  0  0  0  0  0  0  0  0  0
   64.4407   -1.5641    2.2635 C   0  0  0  0  0  0  0  0  0  0  0  0
   64.6470   -1.0670    1.0102 N   0  0  0  0  0  0  0  0  0  0  0  0
   63.1889   -1.7766    2.8682 C   0  0  0  0  0  0  0  0  0  0  0  0
   63.1901   -2.3148    4.1744 C   0  0  0  0  0  0  0  0  0  0  0  0
   63.1923   -2.7903    5.2910 C   0  0  0  0  0  0  0  0  0  0  0  0
   63.1988   -3.3522    6.5879 C   0  0  0  0  0  0  0  0  0  0  0  0
   62.0065   -3.6214    7.2705 C   0  0  0  0  0  0  0  0  0  0  0  0
   62.0694   -4.1774    8.5357 C   0  0  0  0  0  0  0  0  0  0  0  0
   63.2150   -4.4724    9.1451 N   0  0  0  0  0  0  0  0  0  0  0  0
   64.3528   -4.2186    8.5033 C   0  0  0  0  0  0  0  0  0  0  0  0
   64.3995   -3.6648    7.2366 C   0  0  0  0  0  0  0  0  0  0  0  0
   61.9360   -1.5070    2.2881 C   0  0  0  0  0  0  0  0  0  0  0  0
   60.6716   -1.7173    2.9302 C   0  0  0  0  0  0  0  0  0  0  0  0
   59.7104   -1.3513    2.0427 C   0  0  0  0  0  0  0  0  0  0  0  0
   60.3826   -0.9174    0.8531 C   0  0  0  0  0  0  0  0  0  0  0  0
   61.7306   -1.0170    1.0331 N   0  0  0  0  0  0  0  0  0  0  0  0
   58.6345    0.4049   -2.8121 H   0  0  0  0  0  0  0  0  0  0  0  0
   60.5349    1.1098   -4.5816 H   0  0  0  0  0  0  0  0  0  0  0  0
   65.3255    2.4265   -7.4536 H   0  0  0  0  0  0  0  0  0  0  0  0
   65.2211    3.4033   -9.7399 H   0  0  0  0  0  0  0  0  0  0  0  0
   61.1113    3.3413   -9.7483 H   0  0  0  0  0  0  0  0  0  0  0  0
   61.0273    2.3619   -7.4622 H   0  0  0  0  0  0  0  0  0  0  0  0
   65.8273    1.1647   -4.5663 H   0  0  0  0  0  0  0  0  0  0  0  0
   67.7318    0.4493   -2.8104 H   0  0  0  0  0  0  0  0  0  0  0  0
   67.7360   -1.5301    2.1112 H   0  0  0  0  0  0  0  0  0  0  0  0
   65.8343   -2.2253    3.8784 H   0  0  0  0  0  0  0  0  0  0  0  0
   61.0512   -3.3975    6.8114 H   0  0  0  0  0  0  0  0  0  0  0  0
   61.1599   -4.3975    9.0874 H   0  0  0  0  0  0  0  0  0  0  0  0
   65.2691   -4.4718    9.0290 H   0  0  0  0  0  0  0  0  0  0  0  0
   65.3487   -3.4754    6.7500 H   0  0  0  0  0  0  0  0  0  0  0  0
   60.5437   -2.0971    3.9315 H   0  0  0  0  0  0  0  0  0  0  0  0
   58.6400   -1.3733    2.1731 H   0  0  0  0  0  0  0  0  0  0  0  0
   74.1247   -0.6014   -0.3853 Zn  0  0  0  0  0  0  0  0  0  0  0  0
   70.6739   -0.5729   -0.3612 C   0  0  0  0  0  0  0  0  0  0  0  0
   71.3204    0.3890   -1.1616 C   0  0  0  0  0  0  0  0  0  0  0  0
   70.6527    1.3814   -1.9506 C   0  0  0  0  0  0  0  0  0  0  0  0
   71.6162    2.1189   -2.5617 C   0  0  0  0  0  0  0  0  0  0  0  0
   72.8786    1.5841   -2.1448 C   0  0  0  0  0  0  0  0  0  0  0  0
   72.6686    0.5362   -1.2975 N   0  0  0  0  0  0  0  0  0  0  0  0
   74.1324    2.0790   -2.5466 C   0  0  0  0  0  0  0  0  0  0  0  0
   74.1314    3.1670   -3.4478 C   0  0  0  0  0  0  0  0  0  0  0  0
   74.1228    4.0944   -4.2307 C   0  0  0  0  0  0  0  0  0  0  0  0
   74.1069    5.1705   -5.1468 C   0  0  0  0  0  0  0  0  0  0  0  0
   75.2940    5.7357   -5.6275 C   0  0  0  0  0  0  0  0  0  0  0  0
   75.2210    6.7842   -6.5270 C   0  0  0  0  0  0  0  0  0  0  0  0
   74.0702    7.2896   -6.9641 N   0  0  0  0  0  0  0  0  0  0  0  0
   72.9371    6.7582   -6.5115 C   0  0  0  0  0  0  0  0  0  0  0  0
   72.9006    5.7085   -5.6114 C   0  0  0  0  0  0  0  0  0  0  0  0
   75.3842    1.5869   -2.1355 C   0  0  0  0  0  0  0  0  0  0  0  0
   76.6504    2.1160   -2.5491 C   0  0  0  0  0  0  0  0  0  0  0  0
   77.6093    1.3676   -1.9438 C   0  0  0  0  0  0  0  0  0  0  0  0
   75.5867    0.5357   -1.2912 N   0  0  0  0  0  0  0  0  0  0  0  0
   76.9340    0.3765   -1.1589 C   0  0  0  0  0  0  0  0  0  0  0  0
   77.5721   -0.6219   -0.3998 C   0  0  0  0  0  0  0  0  0  0  0  0
   76.9278   -1.6157    0.3602 C   0  0  0  0  0  0  0  0  0  0  0  0
   77.5975   -2.6174    1.1362 C   0  0  0  0  0  0  0  0  0  0  0  0
   76.6345   -3.3570    1.7459 C   0  0  0  0  0  0  0  0  0  0  0  0
   75.3714   -2.8108    1.3452 C   0  0  0  0  0  0  0  0  0  0  0  0
   75.5797   -1.7594    0.5025 N   0  0  0  0  0  0  0  0  0  0  0  0
   74.1176   -3.2880    1.7682 C   0  0  0  0  0  0  0  0  0  0  0  0
   74.1140   -4.3818    2.6625 C   0  0  0  0  0  0  0  0  0  0  0  0
   74.1066   -5.3178    3.4350 C   0  0  0  0  0  0  0  0  0  0  0  0
   74.0971   -6.4049    4.3383 C   0  0  0  0  0  0  0  0  0  0  0  0
   72.8948   -6.9389    4.8175 C   0  0  0  0  0  0  0  0  0  0  0  0
   72.9384   -8.0019    5.7016 C   0  0  0  0  0  0  0  0  0  0  0  0
   74.0747   -8.5496    6.1255 N   0  0  0  0  0  0  0  0  0  0  0  0
   75.2218   -8.0478    5.6748 C   0  0  0  0  0  0  0  0  0  0  0  0
   75.2877   -6.9871    4.7892 C   0  0  0  0  0  0  0  0  0  0  0  0
   72.8661   -2.7727    1.3851 C   0  0  0  0  0  0  0  0  0  0  0  0
   71.6008   -3.2884    1.8170 C   0  0  0  0  0  0  0  0  0  0  0  0
   70.6413   -2.5319    1.2228 C   0  0  0  0  0  0  0  0  0  0  0  0
   71.3146   -1.5473    0.4286 C   0  0  0  0  0  0  0  0  0  0  0  0
   72.6619   -1.7178    0.5450 N   0  0  0  0  0  0  0  0  0  0  0  0
   69.5834    1.4993   -2.0200 H   0  0  0  0  0  0  0  0  0  0  0  0
   71.4902    2.9541   -3.2322 H   0  0  0  0  0  0  0  0  0  0  0  0
   76.2532    5.3546   -5.2985 H   0  0  0  0  0  0  0  0  0  0  0  0
   76.1263    7.2410   -6.9165 H   0  0  0  0  0  0  0  0  0  0  0  0
   72.0164    7.1942   -6.8884 H   0  0  0  0  0  0  0  0  0  0  0  0
   71.9549    5.3056   -5.2692 H   0  0  0  0  0  0  0  0  0  0  0  0
   76.7813    2.9523   -3.2174 H   0  0  0  0  0  0  0  0  0  0  0  0
   78.6801    1.4690   -2.0222 H   0  0  0  0  0  0  0  0  0  0  0  0
   78.6677   -2.7322    1.2046 H   0  0  0  0  0  0  0  0  0  0  0  0
   76.7609   -4.1973    2.4099 H   0  0  0  0  0  0  0  0  0  0  0  0
   71.9467   -6.5228    4.4987 H   0  0  0  0  0  0  0  0  0  0  0  0
   72.0208   -8.4351    6.0894 H   0  0  0  0  0  0  0  0  0  0  0  0
   76.1300   -8.5182    6.0407 H   0  0  0  0  0  0  0  0  0  0  0  0
   76.2443   -6.6099    4.4480 H   0  0  0  0  0  0  0  0  0  0  0  0
   71.4701   -4.1247    2.4852 H   0  0  0  0  0  0  0  0  0  0  0  0
   69.5711   -2.6318    1.3068 H   0  0  0  0  0  0  0  0  0  0  0  0
  2  3  4  0  0  0  0
  3  4  4  0  0  0  0
  4  5  2  0  0  0  0
  5  6  4  0  0  0  0
  1  7  1  0  0  0  0
  3  7  4  0  0  0  0
  6  7  4  0  0  0  0
  6  8  4  0  0  0  0
  8  9  1  0  0  0  0
  9 10  3  0  0  0  0
 10 11  1  0  0  0  0
 11 12  4  0  0  0  0
 12 13  4  0  0  0  0
 13 14  4  0  0  0  0
 14 15  4  0  0  0  0
 11 16  4  0  0  0  0
 15 16  4  0  0  0  0
  8 17  4  0  0  0  0
 17 18  4  0  0  0  0
 18 19  2  0  0  0  0
  1 20  1  0  0  0  0
 17 20  4  0  0  0  0
 19 21  4  0  0  0  0
 20 21  4  0  0  0  0
 21 22  4  0  0  0  0
 22 23  4  0  0  0  0
 23 24  4  0  0  0  0
 24 25  2  0  0  0  0
 25 26  4  0  0  0  0
  1 27  1  0  0  0  0
 23 27  4  0  0  0  0
 26 27  4  0  0  0  0
 26 28  4  0  0  0  0
 28 29  1  0  0  0  0
 29 30  3  0  0  0  0
 30 31  1  0  0  0  0
 31 32  4  0  0  0  0
 32 33  4  0  0  0  0
 33 34  4  0  0  0  0
 34 35  4  0  0  0  0
 31 36  4  0  0  0  0
 35 36  4  0  0  0  0
 28 37  4  0  0  0  0
 37 38  4  0  0  0  0
 38 39  2  0  0  0  0
  2 40  4  0  0  0  0
 39 40  4  0  0  0  0
  1 41  1  0  0  0  0
 37 41  4  0  0  0  0
 40 41  4  0  0  0  0
  2 42  1  0  0  0  0
  4 43  1  0  0  0  0
  5 44  1  0  0  0  0
 12 45  1  0  0  0  0
 13 46  1  0  0  0  0
 15 47  1  0  0  0  0
 16 48  1  0  0  0  0
 18 49  1  0  0  0  0
 19 50  1  0  0  0  0
 24 51  1  0  0  0  0
 25 52  1  0  0  0  0
 32 53  1  0  0  0  0
 33 54  1  0  0  0  0
 35 55  1  0  0  0  0
 36 56  1  0  0  0  0
 38 57  1  0  0  0  0
 39 58  1  0  0  0  0
 60 61  4  0  0  0  0
 61 62  4  0  0  0  0
 62 63  2  0  0  0  0
 63 64  4  0  0  0  0
 59 65  1  0  0  0  0
 61 65  4  0  0  0  0
 64 65  4  0  0  0  0
 64 66  4  0  0  0  0
 66 67  1  0  0  0  0
 67 68  3  0  0  0  0
 68 69  1  0  0  0  0
 69 70  4  0  0  0  0
 70 71  4  0  0  0  0
 71 72  4  0  0  0  0
 72 73  4  0  0  0  0
 69 74  4  0  0  0  0
 73 74  4  0  0  0  0
 66 75  4  0  0  0  0
 75 76  4  0  0  0  0
 76 77  2  0  0  0  0
 59 78  1  0  0  0  0
 75 78  4  0  0  0  0
 77 79  4  0  0  0  0
 78 79  4  0  0  0  0
 79 80  4  0  0  0  0
 80 81  4  0  0  0  0
 81 82  4  0  0  0  0
 82 83  2  0  0  0  0
 83 84  4  0  0  0  0
 59 85  1  0  0  0  0
 81 85  4  0  0  0  0
 84 85  4  0  0  0  0
 84 86  4  0  0  0  0
 86 87  1  0  0  0  0
 87 88  3  0  0  0  0
 88 89  1  0  0  0  0
 89 90  4  0  0  0  0
 90 91  4  0  0  0  0
 91 92  4  0  0  0  0
 92 93  4  0  0  0  0
 89 94  4  0  0  0  0
 93 94  4  0  0  0  0
 86 95  4  0  0  0  0
 95 96  4  0  0  0  0
 96 97  2  0  0  0  0
 60 98  4  0  0  0  0
 97 98  4  0  0  0  0
 59 99  1  0  0  0  0
 95 99  4  0  0  0  0
 98 99  4  0  0  0  0
 60100  1  0  0  0  0
 62101  1  0  0  0  0
 63102  1  0  0  0  0
 70103  1  0  0  0  0
 71104  1  0  0  0  0
 73105  1  0  0  0  0
 74106  1  0  0  0  0
 76107  1  0  0  0  0
 77108  1  0  0  0  0
 82109  1  0  0  0  0
 83110  1  0  0  0  0
 90111  1  0  0  0  0
 91112  1  0  0  0  0
 93113  1  0  0  0  0
 94114  1  0  0  0  0
 96115  1  0  0  0  0
 97116  1  0  0  0  0
 22117  1  0  0  0  0
117118  3  0  0  0  0
119120  3  0  0  0  0
 80122  1  0  0  0  0
121122  3  0  0  0  0
118124  1  0  0  0  0
124125  4  0  0  0  0
125126  4  0  0  0  0
126127  2  0  0  0  0
127128  4  0  0  0  0
123129  1  0  0  0  0
125129  4  0  0  0  0
128129  4  0  0  0  0
128130  4  0  0  0  0
130131  1  0  0  0  0
131132  3  0  0  0  0
132133  1  0  0  0  0
133134  4  0  0  0  0
134135  4  0  0  0  0
135136  4  0  0  0  0
136137  4  0  0  0  0
133138  4  0  0  0  0
137138  4  0  0  0  0
130139  4  0  0  0  0
139140  4  0  0  0  0
140141  2  0  0  0  0
123142  1  0  0  0  0
139142  4  0  0  0  0
141143  4  0  0  0  0
142143  4  0  0  0  0
119144  4  0  0  0  0
143144  4  0  0  0  0
144145  4  0  0  0  0
145146  4  0  0  0  0
146147  2  0  0  0  0
147148  4  0  0  0  0
123149  1  0  0  0  0
145149  4  0  0  0  0
148149  4  0  0  0  0
148150  4  0  0  0  0
150151  1  0  0  0  0
151152  3  0  0  0  0
152153  1  0  0  0  0
153154  4  0  0  0  0
154155  4  0  0  0  0
155156  4  0  0  0  0
156157  4  0  0  0  0
153158  4  0  0  0  0
157158  4  0  0  0  0
150159  4  0  0  0  0
159160  4  0  0  0  0
160161  2  0  0  0  0
124162  4  0  0  0  0
161162  4  0  0  0  0
123163  1  0  0  0  0
159163  4  0  0  0  0
162163  4  0  0  0  0
126164  1  0  0  0  0
127165  1  0  0  0  0
134166  1  0  0  0  0
135167  1  0  0  0  0
137168  1  0  0  0  0
138169  1  0  0  0  0
140170  1  0  0  0  0
141171  1  0  0  0  0
146172  1  0  0  0  0
147173  1  0  0  0  0
154174  1  0  0  0  0
155175  1  0  0  0  0
157176  1  0  0  0  0
158177  1  0  0  0  0
160178  1  0  0  0  0
161179  1  0  0  0  0
120181  4  0  0  0  0
181182  4  0  0  0  0
182183  4  0  0  0  0
183184  2  0  0  0  0
184185  4  0  0  0  0
180186  1  0  0  0  0
182186  4  0  0  0  0
185186  4  0  0  0  0
185187  4  0  0  0  0
187188  1  0  0  0  0
188189  3  0  0  0  0
189190  1  0  0  0  0
190191  4  0  0  0  0
191192  4  0  0  0  0
192193  4  0  0  0  0
193194  4  0  0  0  0
190195  4  0  0  0  0
194195  4  0  0  0  0
187196  4  0  0  0  0
196197  4  0  0  0  0
197198  2  0  0  0  0
180199  1  0  0  0  0
196199  4  0  0  0  0
198200  4  0  0  0  0
199200  4  0  0  0  0
121201  1  0  0  0  0
200201  4  0  0  0  0
201202  4  0  0  0  0
202203  4  0  0  0  0
203204  2  0  0  0  0
204205  4  0  0  0  0
180206  1  0  0  0  0
202206  4  0  0  0  0
205206  4  0  0  0  0
205207  4  0  0  0  0
207208  1  0  0  0  0
208209  3  0  0  0  0
209210  1  0  0  0  0
210211  4  0  0  0  0
211212  4  0  0  0  0
212213  4  0  0  0  0
213214  4  0  0  0  0
210215  4  0  0  0  0
214215  4  0  0  0  0
207216  4  0  0  0  0
216217  4  0  0  0  0
217218  2  0  0  0  0
181219  4  0  0  0  0
218219  4  0  0  0  0
180220  1  0  0  0  0
216220  4  0  0  0  0
219220  4  0  0  0  0
183221  1  0  0  0  0
184222  1  0  0  0  0
191223  1  0  0  0  0
192224  1  0  0  0  0
194225  1  0  0  0  0
195226  1  0  0  0  0
197227  1  0  0  0  0
198228  1  0  0  0  0
203229  1  0  0  0  0
204230  1  0  0  0  0
211231  1  0  0  0  0
212232  1  0  0  0  0
214233  1  0  0  0  0
215234  1  0  0  0  0
217235  1  0  0  0  0
218236  1  0  0  0  0
M  END
