296

C 44.107836 -0.017286 -0.014598
C 44.835791 1.358322 0.081379
C 44.228037 2.592847 0.062929
C 45.250396 3.561879 0.235168
C 46.447607 2.884202 0.361113
N 46.188333 1.544883 0.211752
C 47.869164 3.520815 0.653089
C 47.905937 4.935331 1.085630
C 48.193312 5.947106 0.170976
C 48.204856 7.254591 0.624694
N 47.950803 7.619091 1.903579
C 47.676599 6.610581 2.764595
C 47.641184 5.272808 2.411320
C 49.000373 2.772336 0.554075
C 50.304714 3.309467 0.884783
C 51.207579 2.350070 0.718941
N 49.197229 1.468800 0.182880
C 50.528904 1.153501 0.262040
C 51.196827 -0.001319 -0.000672
C 50.417362 -1.279837 -0.524797
C 50.951914 -2.312866 -1.269463
C 49.926448 -3.270353 -1.470008
C 48.792242 -2.790123 -0.850694
N 49.086014 -1.553564 -0.326464
C 47.386338 -3.518944 -0.773341
C 47.361827 -4.989589 -0.917641
C 47.758446 -5.804669 0.140147
C 47.733157 -7.176179 -0.045769
N 47.348837 -7.782902 -1.193727
C 46.970902 -6.960927 -2.200654
C 46.961888 -5.579496 -2.115824
C 46.259929 -2.791470 -0.558029
C 44.940716 -3.391203 -0.459063
C 44.054288 -2.419912 -0.261508
C 44.773055 -1.170474 -0.213705
N 46.093128 -1.445760 -0.387906
H 43.031127 -0.031354 0.105364
H 43.169786 2.774721 -0.044893
H 45.121537 4.632521 0.287241
H 46.888587 0.807288 0.202981
H 48.405541 5.704077 -0.864604
H 48.427321 8.070665 -0.054904
H 47.477689 6.914514 3.787072
H 47.416685 4.500118 3.138678
H 50.518314 4.308095 1.221829
H 52.261197 2.465522 0.896626
H 51.970457 -2.379837 -1.620645
H 50.008989 -4.206519 -2.001393
H 48.406304 -0.922313 0.089737
H 48.075714 -5.366796 1.080409
H 48.033378 -7.844757 0.754425
H 46.663012 -7.457936 -3.114687
H 46.649260 -4.962204 -2.951280
H 44.711938 -4.439331 -0.528563
H 42.992227 -2.538756 -0.145560
C 115.739927 0.019254 -0.005738
C 115.011972 -1.247549 -0.550456
C 115.619726 -2.336529 -1.132277
C 114.597368 -3.276836 -1.422988
C 113.400157 -2.732100 -1.000649
N 113.659430 -1.473104 -0.520007
C 111.978599 -3.431743 -1.032670
C 111.941826 -4.887282 -1.296019
C 111.654451 -5.367782 -2.572499
C 111.642908 -6.737874 -2.768003
N 111.896960 -7.647634 -1.798082
C 112.171164 -7.145469 -0.570779
C 112.206580 -5.794455 -0.272115
C 110.847390 -2.721034 -0.777880
C 109.543050 -3.349982 -0.729907
C 108.640184 -2.421170 -0.437923
N 110.650534 -1.392247 -0.510827
C 109.318860 -1.148219 -0.296049
C 108.650937 -0.001319 -0.000672
C 109.430401 1.375271 0.118976
C 108.895850 2.634643 -0.069860
C 109.921316 3.577651 0.190400
C 111.055521 2.867102 0.520990
N 110.761749 1.527763 0.420653
C 112.461425 3.479559 0.923558
C 112.485936 4.852978 1.468846
C 112.089317 5.093068 2.782477
C 112.114606 6.397422 3.245368
N 112.498926 7.462540 2.502774
C 112.876861 7.193024 1.231198
C 112.885875 5.926150 0.673904
C 113.587834 2.734256 0.781772
C 114.907048 3.222062 1.144429
C 115.793476 2.268152 0.875187
C 115.074709 1.135572 0.345433
N 113.754635 1.460072 0.316659
H 116.816636 -0.023183 0.107345
H 116.677977 -2.448823 -1.311425
H 114.726226 -4.252432 -1.867058
H 112.959176 -0.813403 -0.189982
H 111.442222 -4.677440 -3.381768
H 111.420442 -7.152062 -3.745898
H 112.370074 -7.883951 0.198947
H 112.431078 -5.440707 0.728366
H 109.329449 -4.392081 -0.887668
H 107.586567 -2.605183 -0.332847
H 107.877307 2.855020 -0.351370
H 109.838774 4.653233 0.146795
H 111.441459 0.775991 0.501518
H 111.772049 4.273177 3.417774
H 111.814385 6.625261 4.262912
H 113.184751 8.053473 0.646302
H 113.198503 5.760052 -0.351498
H 115.135826 4.185626 1.562695
H 116.855536 2.320694 1.032691
C 57.304624 -0.000448 0.007882
C 56.095685 -0.013903 -0.000565
C 54.674156 -0.005084 -0.012548
C 53.462486 0.002355 -0.001685
C 58.721229 -0.007123 0.008415
C 59.941924 0.002355 -0.001685
C 72.786635 -0.000448 0.007882
C 71.577696 -0.013903 -0.000565
C 70.156167 -0.005084 -0.012548
C 68.944497 0.002355 -0.001685
C 74.203240 -0.007123 0.008415
C 75.423935 0.002355 -0.001685
C 88.268646 -0.000448 0.007882
C 87.059707 -0.013903 -0.000565
C 85.638178 -0.005084 -0.012548
C 84.426508 0.002355 -0.001685
C 89.685251 -0.007123 0.008415
C 90.905946 0.002355 -0.001685
C 103.750657 -0.000448 0.007882
C 102.541718 -0.013903 -0.000565
C 101.120189 -0.005084 -0.012548
C 99.908519 0.002355 -0.001685
C 105.167262 -0.007123 0.008415
C 106.387957 0.002355 -0.001685
C 60.861918 0.000547 0.000706
C 61.657699 -1.244952 0.571817
C 61.157304 -2.240311 1.384336
C 62.195505 -3.186154 1.585081
C 63.298989 -2.735450 0.891503
N 62.983763 -1.517886 0.344192
C 64.687560 -3.480953 0.745517
C 64.680205 -4.957628 0.823618
C 65.097856 -5.608515 1.983764
C 65.056562 -6.991915 2.009694
N 64.632049 -7.760198 0.979094
C 64.232667 -7.095284 -0.130827
C 64.235993 -5.716468 -0.256725
C 65.823146 -2.771658 0.516289
C 67.110162 -3.407743 0.322392
C 68.018746 -2.459908 0.118406
N 66.031362 -1.425554 0.404610
C 67.356513 -1.172545 0.171272
C 68.020225 0.000547 0.000706
C 67.223105 1.367025 0.069717
C 67.716106 2.590396 0.473310
C 66.678269 3.542422 0.303738
C 65.582196 2.868113 -0.191076
N 65.900602 1.535074 -0.257722
C 64.197013 3.505094 -0.611171
C 64.208774 4.898648 -1.104461
C 63.812841 5.947891 -0.277253
C 63.855789 7.234373 -0.785714
N 64.261760 7.544423 -2.038819
C 64.640643 6.501283 -2.814176
C 64.634578 5.180418 -2.400521
C 63.060335 2.763527 -0.555730
C 61.774169 3.282081 -0.973834
C 60.864904 2.327784 -0.807642
C 61.526030 1.152835 -0.276916
N 62.850630 1.474518 -0.152806
H 60.153898 -2.292571 1.774154
H 62.138205 -4.099691 2.154535
H 63.642656 -0.892990 -0.113242
H 65.447624 -5.035957 2.836435
H 65.374109 -7.534884 2.893115
H 63.895395 -7.721570 -0.950632
H 63.904968 -5.231358 -1.168157
H 67.307349 -4.464993 0.329752
H 69.063752 -2.638176 -0.057958
H 68.715793 2.782432 0.830952
H 66.731024 4.602010 0.503251
H 65.246587 0.785986 -0.464909
H 63.478036 5.749407 0.735010
H 63.553703 8.078114 -0.174249
H 64.962711 6.761638 -3.816640
H 64.948780 4.379369 -3.060677
H 61.577928 4.265907 -1.361531
H 59.819818 2.428542 -1.036902
C 76.343929 0.000547 0.000706
C 77.139710 -1.244952 0.571817
C 76.639315 -2.240311 1.384336
C 77.677516 -3.186154 1.585081
C 78.781000 -2.735450 0.891503
N 78.465774 -1.517886 0.344192
C 80.169571 -3.480953 0.745517
C 80.162216 -4.957628 0.823618
C 80.579867 -5.608515 1.983764
C 80.538573 -6.991915 2.009694
N 80.114060 -7.760198 0.979094
C 79.714678 -7.095284 -0.130827
C 79.718004 -5.716468 -0.256725
C 81.305157 -2.771658 0.516289
C 82.592173 -3.407743 0.322392
C 83.500757 -2.459908 0.118406
N 81.513373 -1.425554 0.404610
C 82.838524 -1.172545 0.171272
C 83.502236 0.000547 0.000706
C 82.705116 1.367025 0.069717
C 83.198117 2.590396 0.473310
C 82.160280 3.542422 0.303738
C 81.064207 2.868113 -0.191076
N 81.382613 1.535074 -0.257722
C 79.679024 3.505094 -0.611171
C 79.690785 4.898648 -1.104461
C 79.294852 5.947891 -0.277253
C 79.337800 7.234373 -0.785714
N 79.743771 7.544423 -2.038819
C 80.122654 6.501283 -2.814176
C 80.116589 5.180418 -2.400521
C 78.542346 2.763527 -0.555730
C 77.256180 3.282081 -0.973834
C 76.346915 2.327784 -0.807642
C 77.008041 1.152835 -0.276916
N 78.332641 1.474518 -0.152806
H 75.635909 -2.292571 1.774154
H 77.620216 -4.099691 2.154535
H 79.124667 -0.892990 -0.113242
H 80.929635 -5.035957 2.836435
H 80.856120 -7.534884 2.893115
H 79.377406 -7.721570 -0.950632
H 79.386979 -5.231358 -1.168157
H 82.789360 -4.464993 0.329752
H 84.545763 -2.638176 -0.057958
H 84.197804 2.782432 0.830952
H 82.213035 4.602010 0.503251
H 80.728598 0.785986 -0.464909
H 78.960047 5.749407 0.735010
H 79.035714 8.078114 -0.174249
H 80.444722 6.761638 -3.816640
H 80.430791 4.379369 -3.060677
H 77.059939 4.265907 -1.361531
H 75.301829 2.428542 -1.036902
C 91.825940 0.000547 0.000706
C 92.621721 -1.244952 0.571817
C 92.121326 -2.240311 1.384336
C 93.159527 -3.186154 1.585081
C 94.263011 -2.735450 0.891503
N 93.947785 -1.517886 0.344192
C 95.651582 -3.480953 0.745517
C 95.644227 -4.957628 0.823618
C 96.061878 -5.608515 1.983764
C 96.020584 -6.991915 2.009694
N 95.596071 -7.760198 0.979094
C 95.196689 -7.095284 -0.130827
C 95.200015 -5.716468 -0.256725
C 96.787168 -2.771658 0.516289
C 98.074184 -3.407743 0.322392
C 98.982768 -2.459908 0.118406
N 96.995384 -1.425554 0.404610
C 98.320535 -1.172545 0.171272
C 98.984247 0.000547 0.000706
C 98.187127 1.367025 0.069717
C 98.680128 2.590396 0.473310
C 97.642291 3.542422 0.303738
C 96.546218 2.868113 -0.191076
N 96.864624 1.535074 -0.257722
C 95.161035 3.505094 -0.611171
C 95.172796 4.898648 -1.104461
C 94.776863 5.947891 -0.277253
C 94.819811 7.234373 -0.785714
N 95.225782 7.544423 -2.038819
C 95.604665 6.501283 -2.814176
C 95.598600 5.180418 -2.400521
C 94.024357 2.763527 -0.555730
C 92.738191 3.282081 -0.973834
C 91.828925 2.327784 -0.807642
C 92.490052 1.152835 -0.276916
N 93.814652 1.474518 -0.152806
H 91.117920 -2.292571 1.774154
H 93.102227 -4.099691 2.154535
H 94.606678 -0.892990 -0.113242
H 96.411646 -5.035957 2.836435
H 96.338131 -7.534884 2.893115
H 94.859417 -7.721570 -0.950632
H 94.868990 -5.231358 -1.168157
H 98.271371 -4.464993 0.329752
H 100.027774 -2.638176 -0.057958
H 99.679815 2.782432 0.830952
H 97.695046 4.602010 0.503251
H 96.210609 0.785986 -0.464909
H 94.442058 5.749407 0.735010
H 94.517725 8.078114 -0.174249
H 95.926733 6.761638 -3.816640
H 95.912802 4.379369 -3.060677
H 92.541950 4.265907 -1.361531
H 90.783840 2.428542 -1.036902
