 xtb: 6.5.1 (b24c23e)
          07272208093D

296330  0     0  0            999 V2000
   44.4936    0.0821    0.0132 C   0  0  0  0  0  0  0  0  0  0  0  0
   45.1108    1.3057    0.2392 C   0  0  0  0  0  0  0  0  0  0  0  0
   44.4676    2.5605    0.4326 C   0  0  0  0  0  0  0  0  0  0  0  0
   45.4358    3.5035    0.6336 C   0  0  0  0  0  0  0  0  0  0  0  0
   46.7017    2.8530    0.5790 C   0  0  0  0  0  0  0  0  0  0  0  0
   46.4551    1.5331    0.3291 N   0  0  0  0  0  0  0  0  0  0  0  0
   47.9686    3.4294    0.7257 C   0  0  0  0  0  0  0  0  0  0  0  0
   48.0072    4.8819    1.0175 C   0  0  0  0  0  0  0  0  0  0  0  0
   48.6340    5.7782    0.1523 C   0  0  0  0  0  0  0  0  0  0  0  0
   48.6383    7.1285    0.4645 C   0  0  0  0  0  0  0  0  0  0  0  0
   48.0718    7.6203    1.5617 N   0  0  0  0  0  0  0  0  0  0  0  0
   47.4749    6.7727    2.3935 C   0  0  0  0  0  0  0  0  0  0  0  0
   47.4143    5.4070    2.1654 C   0  0  0  0  0  0  0  0  0  0  0  0
   49.1802    2.7430    0.6174 C   0  0  0  0  0  0  0  0  0  0  0  0
   50.4804    3.3534    0.8300 C   0  0  0  0  0  0  0  0  0  0  0  0
   51.3954    2.3821    0.6325 C   0  0  0  0  0  0  0  0  0  0  0  0
   49.3271    1.4223    0.3199 N   0  0  0  0  0  0  0  0  0  0  0  0
   50.6528    1.1785    0.3109 C   0  0  0  0  0  0  0  0  0  0  0  0
   51.2829   -0.0513    0.0304 C   0  0  0  0  0  0  0  0  0  0  0  0
   50.6398   -1.2736   -0.2420 C   0  0  0  0  0  0  0  0  0  0  0  0
   51.2766   -2.5058   -0.5467 C   0  0  0  0  0  0  0  0  0  0  0  0
   50.3040   -3.4477   -0.7376 C   0  0  0  0  0  0  0  0  0  0  0  0
   49.0419   -2.8196   -0.5468 C   0  0  0  0  0  0  0  0  0  0  0  0
   49.2969   -1.5052   -0.2574 N   0  0  0  0  0  0  0  0  0  0  0  0
   47.7758   -3.4040   -0.6578 C   0  0  0  0  0  0  0  0  0  0  0  0
   47.7343   -4.8543   -0.9571 C   0  0  0  0  0  0  0  0  0  0  0  0
   48.3086   -5.7901   -0.0970 C   0  0  0  0  0  0  0  0  0  0  0  0
   48.2410   -7.1362   -0.4199 C   0  0  0  0  0  0  0  0  0  0  0  0
   47.6549   -7.5880   -1.5239 N   0  0  0  0  0  0  0  0  0  0  0  0
   47.1072   -6.7028   -2.3505 C   0  0  0  0  0  0  0  0  0  0  0  0
   47.1191   -5.3378   -2.1116 C   0  0  0  0  0  0  0  0  0  0  0  0
   46.5628   -2.7227   -0.5104 C   0  0  0  0  0  0  0  0  0  0  0  0
   45.2545   -3.3557   -0.5776 C   0  0  0  0  0  0  0  0  0  0  0  0
   44.3466   -2.3767   -0.3917 C   0  0  0  0  0  0  0  0  0  0  0  0
   45.0989   -1.1492   -0.1999 C   0  0  0  0  0  0  0  0  0  0  0  0
   46.4300   -1.3974   -0.2680 N   0  0  0  0  0  0  0  0  0  0  0  0
   43.4084    0.0998    0.0051 H   0  0  0  0  0  0  0  0  0  0  0  0
   43.3999    2.7095    0.4120 H   0  0  0  0  0  0  0  0  0  0  0  0
   45.2922    4.5592    0.7967 H   0  0  0  0  0  0  0  0  0  0  0  0
   47.1754    0.8266    0.2229 H   0  0  0  0  0  0  0  0  0  0  0  0
   49.0972    5.4243   -0.7609 H   0  0  0  0  0  0  0  0  0  0  0  0
   49.1164    7.8458   -0.1961 H   0  0  0  0  0  0  0  0  0  0  0  0
   47.0244    7.2039    3.2827 H   0  0  0  0  0  0  0  0  0  0  0  0
   46.9284    4.7528    2.8796 H   0  0  0  0  0  0  0  0  0  0  0  0
   50.6481    4.3817    1.1065 H   0  0  0  0  0  0  0  0  0  0  0  0
   52.4695    2.4457    0.7012 H   0  0  0  0  0  0  0  0  0  0  0  0
   52.3438   -2.6426   -0.6147 H   0  0  0  0  0  0  0  0  0  0  0  0
   50.4446   -4.4839   -0.9983 H   0  0  0  0  0  0  0  0  0  0  0  0
   48.5792   -0.8078   -0.0894 H   0  0  0  0  0  0  0  0  0  0  0  0
   48.7849   -5.4698    0.8220 H   0  0  0  0  0  0  0  0  0  0  0  0
   48.6764   -7.8834    0.2372 H   0  0  0  0  0  0  0  0  0  0  0  0
   46.6381   -7.1021   -3.2451 H   0  0  0  0  0  0  0  0  0  0  0  0
   46.6714   -4.6524   -2.8213 H   0  0  0  0  0  0  0  0  0  0  0  0
   45.0799   -4.4082   -0.7327 H   0  0  0  0  0  0  0  0  0  0  0  0
   43.2704   -2.4481   -0.3723 H   0  0  0  0  0  0  0  0  0  0  0  0
  115.3542   -0.0822   -0.0191 C   0  0  0  0  0  0  0  0  0  0  0  0
  114.7344   -1.2730   -0.3752 C   0  0  0  0  0  0  0  0  0  0  0  0
  115.3744   -2.4792   -0.7767 C   0  0  0  0  0  0  0  0  0  0  0  0
  114.4040   -3.4085   -1.0252 C   0  0  0  0  0  0  0  0  0  0  0  0
  113.1399   -2.8028   -0.7729 C   0  0  0  0  0  0  0  0  0  0  0  0
  113.3896   -1.5142   -0.3954 N   0  0  0  0  0  0  0  0  0  0  0  0
  111.8716   -3.3818   -0.8955 C   0  0  0  0  0  0  0  0  0  0  0  0
  111.8280   -4.8078   -1.2962 C   0  0  0  0  0  0  0  0  0  0  0  0
  111.1885   -5.2105   -2.4683 C   0  0  0  0  0  0  0  0  0  0  0  0
  111.1795   -6.5544   -2.8063 C   0  0  0  0  0  0  0  0  0  0  0  0
  111.7532   -7.4930   -2.0601 N   0  0  0  0  0  0  0  0  0  0  0  0
  112.3620   -7.1185   -0.9396 C   0  0  0  0  0  0  0  0  0  0  0  0
  112.4281   -5.7991   -0.5203 C   0  0  0  0  0  0  0  0  0  0  0  0
  110.6621   -2.7198   -0.6717 C   0  0  0  0  0  0  0  0  0  0  0  0
  109.3615   -3.3614   -0.7426 C   0  0  0  0  0  0  0  0  0  0  0  0
  108.4485   -2.4043   -0.4776 C   0  0  0  0  0  0  0  0  0  0  0  0
  110.5179   -1.4056   -0.3461 N   0  0  0  0  0  0  0  0  0  0  0  0
  109.1929   -1.1832   -0.2364 C   0  0  0  0  0  0  0  0  0  0  0  0
  108.5649    0.0461    0.0510 C   0  0  0  0  0  0  0  0  0  0  0  0
  109.2108    1.2628    0.3417 C   0  0  0  0  0  0  0  0  0  0  0  0
  108.5773    2.5047    0.6118 C   0  0  0  0  0  0  0  0  0  0  0  0
  109.5521    3.4292    0.8665 C   0  0  0  0  0  0  0  0  0  0  0  0
  110.8121    2.7764    0.7675 C   0  0  0  0  0  0  0  0  0  0  0  0
  110.5540    1.4719    0.4387 N   0  0  0  0  0  0  0  0  0  0  0  0
  112.0794    3.3426    0.9418 C   0  0  0  0  0  0  0  0  0  0  0  0
  112.1243    4.7715    1.3297 C   0  0  0  0  0  0  0  0  0  0  0  0
  111.5401    5.2206    2.5138 C   0  0  0  0  0  0  0  0  0  0  0  0
  111.6122    6.5668    2.8354 C   0  0  0  0  0  0  0  0  0  0  0  0
  112.2120    7.4655    2.0615 N   0  0  0  0  0  0  0  0  0  0  0  0
  112.7691    7.0467    0.9296 C   0  0  0  0  0  0  0  0  0  0  0  0
  112.7534    5.7214    0.5251 C   0  0  0  0  0  0  0  0  0  0  0  0
  113.2908    2.6624    0.7762 C   0  0  0  0  0  0  0  0  0  0  0  0
  114.6000    3.2519    1.0113 C   0  0  0  0  0  0  0  0  0  0  0  0
  115.5058    2.2915    0.7387 C   0  0  0  0  0  0  0  0  0  0  0  0
  114.7512    1.1132    0.3489 C   0  0  0  0  0  0  0  0  0  0  0  0
  113.4208    1.3703    0.3936 N   0  0  0  0  0  0  0  0  0  0  0  0
  116.4393   -0.0969   -0.0327 H   0  0  0  0  0  0  0  0  0  0  0  0
  116.4417   -2.6044   -0.8660 H   0  0  0  0  0  0  0  0  0  0  0  0
  114.5452   -4.4226   -1.3620 H   0  0  0  0  0  0  0  0  0  0  0  0
  112.6711   -0.8356   -0.1663 H   0  0  0  0  0  0  0  0  0  0  0  0
  110.7189   -4.4786   -3.1147 H   0  0  0  0  0  0  0  0  0  0  0  0
  110.6916   -6.8911   -3.7163 H   0  0  0  0  0  0  0  0  0  0  0  0
  112.8178   -7.9082   -0.3495 H   0  0  0  0  0  0  0  0  0  0  0  0
  112.9237   -5.5432    0.4086 H   0  0  0  0  0  0  0  0  0  0  0  0
  109.1925   -4.4051   -0.9523 H   0  0  0  0  0  0  0  0  0  0  0  0
  107.3747   -2.4920   -0.4352 H   0  0  0  0  0  0  0  0  0  0  0  0
  107.5107    2.6617    0.6048 H   0  0  0  0  0  0  0  0  0  0  0  0
  109.4141    4.4738    1.0931 H   0  0  0  0  0  0  0  0  0  0  0  0
  111.2697    0.7692    0.2849 H   0  0  0  0  0  0  0  0  0  0  0  0
  111.0525    4.5222    3.1836 H   0  0  0  0  0  0  0  0  0  0  0  0
  111.1694    6.9386    3.7549 H   0  0  0  0  0  0  0  0  0  0  0  0
  113.2491    7.8046    0.3175 H   0  0  0  0  0  0  0  0  0  0  0  0
  113.2092    5.4284   -0.4131 H   0  0  0  0  0  0  0  0  0  0  0  0
  114.7765    4.2597    1.3512 H   0  0  0  0  0  0  0  0  0  0  0  0
  116.5819    2.3422    0.7946 H   0  0  0  0  0  0  0  0  0  0  0  0
   56.4847   -0.0957   -0.0371 C   0  0  0  0  0  0  0  0  0  0  0  0
   55.2562   -0.0931   -0.0190 C   0  0  0  0  0  0  0  0  0  0  0  0
   53.9123   -0.0849   -0.0017 C   0  0  0  0  0  0  0  0  0  0  0  0
   52.6884   -0.0719    0.0169 C   0  0  0  0  0  0  0  0  0  0  0  0
   57.8285   -0.0954   -0.0513 C   0  0  0  0  0  0  0  0  0  0  0  0
   59.0527   -0.0884   -0.0613 C   0  0  0  0  0  0  0  0  0  0  0  0
   72.5199    0.0213    0.0758 C   0  0  0  0  0  0  0  0  0  0  0  0
   71.2909    0.0101    0.0786 C   0  0  0  0  0  0  0  0  0  0  0  0
   69.9477    0.0056    0.0694 C   0  0  0  0  0  0  0  0  0  0  0  0
   68.7232   -0.0067    0.0591 C   0  0  0  0  0  0  0  0  0  0  0  0
   73.8632    0.0173    0.0708 C   0  0  0  0  0  0  0  0  0  0  0  0
   75.0877    0.0218    0.0609 C   0  0  0  0  0  0  0  0  0  0  0  0
   88.5577    0.0046    0.0750 C   0  0  0  0  0  0  0  0  0  0  0  0
   87.3288   -0.0021    0.0763 C   0  0  0  0  0  0  0  0  0  0  0  0
   85.9855   -0.0028    0.0743 C   0  0  0  0  0  0  0  0  0  0  0  0
   84.7609   -0.0056    0.0643 C   0  0  0  0  0  0  0  0  0  0  0  0
   89.9010    0.0100    0.0637 C   0  0  0  0  0  0  0  0  0  0  0  0
   91.1254    0.0217    0.0507 C   0  0  0  0  0  0  0  0  0  0  0  0
  104.5918    0.1015    0.0161 C   0  0  0  0  0  0  0  0  0  0  0  0
  103.3634    0.1034   -0.0038 C   0  0  0  0  0  0  0  0  0  0  0  0
  102.0196    0.0995   -0.0215 C   0  0  0  0  0  0  0  0  0  0  0  0
  100.7955    0.0892   -0.0397 C   0  0  0  0  0  0  0  0  0  0  0  0
  105.9357    0.0900    0.0338 C   0  0  0  0  0  0  0  0  0  0  0  0
  107.1596    0.0719    0.0475 C   0  0  0  0  0  0  0  0  0  0  0  0
   60.4574   -0.0811   -0.0612 C   0  0  0  0  0  0  0  0  0  0  0  0
   61.0903   -1.3114    0.2022 C   0  0  0  0  0  0  0  0  0  0  0  0
   60.4471   -2.5447    0.4817 C   0  0  0  0  0  0  0  0  0  0  0  0
   61.4167   -3.4916    0.6696 C   0  0  0  0  0  0  0  0  0  0  0  0
   62.6807   -2.8634    0.5024 C   0  0  0  0  0  0  0  0  0  0  0  0
   62.4327   -1.5451    0.2289 N   0  0  0  0  0  0  0  0  0  0  0  0
   63.9437   -3.4569    0.6183 C   0  0  0  0  0  0  0  0  0  0  0  0
   63.9624   -4.9134    0.8968 C   0  0  0  0  0  0  0  0  0  0  0  0
   64.5294   -5.4191    2.0660 C   0  0  0  0  0  0  0  0  0  0  0  0
   64.5177   -6.7875    2.2855 C   0  0  0  0  0  0  0  0  0  0  0  0
   63.9916   -7.6545    1.4264 N   0  0  0  0  0  0  0  0  0  0  0  0
   63.4524   -7.1811    0.3077 C   0  0  0  0  0  0  0  0  0  0  0  0
   63.4109   -5.8298    0.0022 C   0  0  0  0  0  0  0  0  0  0  0  0
   65.1668   -2.7963    0.4965 C   0  0  0  0  0  0  0  0  0  0  0  0
   66.4562   -3.4597    0.5718 C   0  0  0  0  0  0  0  0  0  0  0  0
   67.3900   -2.4995    0.4105 C   0  0  0  0  0  0  0  0  0  0  0  0
   65.3387   -1.4636    0.2748 N   0  0  0  0  0  0  0  0  0  0  0  0
   66.6694   -1.2549    0.2281 C   0  0  0  0  0  0  0  0  0  0  0  0
   67.3194   -0.0184    0.0366 C   0  0  0  0  0  0  0  0  0  0  0  0
   66.6854    1.2203   -0.1821 C   0  0  0  0  0  0  0  0  0  0  0  0
   67.3267    2.4745   -0.3519 C   0  0  0  0  0  0  0  0  0  0  0  0
   66.3576    3.4182   -0.5566 C   0  0  0  0  0  0  0  0  0  0  0  0
   65.0957    2.7644   -0.5255 C   0  0  0  0  0  0  0  0  0  0  0  0
   65.3444    1.4393   -0.2860 N   0  0  0  0  0  0  0  0  0  0  0  0
   63.8337    3.3496   -0.6843 C   0  0  0  0  0  0  0  0  0  0  0  0
   63.8143    4.8048   -0.9683 C   0  0  0  0  0  0  0  0  0  0  0  0
   63.2013    5.7044   -0.0969 C   0  0  0  0  0  0  0  0  0  0  0  0
   63.2115    7.0559   -0.4037 C   0  0  0  0  0  0  0  0  0  0  0  0
   63.7792    7.5454   -1.5013 N   0  0  0  0  0  0  0  0  0  0  0  0
   64.3634    6.6945   -2.3386 C   0  0  0  0  0  0  0  0  0  0  0  0
   64.4094    5.3272   -2.1160 C   0  0  0  0  0  0  0  0  0  0  0  0
   62.6111    2.6817   -0.5967 C   0  0  0  0  0  0  0  0  0  0  0  0
   61.3240    3.3174   -0.8163 C   0  0  0  0  0  0  0  0  0  0  0  0
   60.3899    2.3609   -0.6368 C   0  0  0  0  0  0  0  0  0  0  0  0
   61.1080    1.1420   -0.3205 C   0  0  0  0  0  0  0  0  0  0  0  0
   62.4385    1.3613   -0.3134 N   0  0  0  0  0  0  0  0  0  0  0  0
   59.3790   -2.6802    0.5353 H   0  0  0  0  0  0  0  0  0  0  0  0
   61.2710   -4.5314    0.9123 H   0  0  0  0  0  0  0  0  0  0  0  0
   63.1505   -0.8443    0.0774 H   0  0  0  0  0  0  0  0  0  0  0  0
   64.9590   -4.7484    2.8004 H   0  0  0  0  0  0  0  0  0  0  0  0
   64.9485   -7.2046    3.1910 H   0  0  0  0  0  0  0  0  0  0  0  0
   63.0341   -7.9141   -0.3759 H   0  0  0  0  0  0  0  0  0  0  0  0
   62.9711   -5.4909   -0.9283 H   0  0  0  0  0  0  0  0  0  0  0  0
   66.6049   -4.5176    0.7149 H   0  0  0  0  0  0  0  0  0  0  0  0
   68.4636   -2.5986    0.4041 H   0  0  0  0  0  0  0  0  0  0  0  0
   68.3932    2.6271   -0.3152 H   0  0  0  0  0  0  0  0  0  0  0  0
   66.5017    4.4756   -0.7066 H   0  0  0  0  0  0  0  0  0  0  0  0
   64.6277    0.7270   -0.1958 H   0  0  0  0  0  0  0  0  0  0  0  0
   62.7367    5.3519    0.8161 H   0  0  0  0  0  0  0  0  0  0  0  0
   62.7442    7.7761    0.2616 H   0  0  0  0  0  0  0  0  0  0  0  0
   64.8154    7.1241   -3.2278 H   0  0  0  0  0  0  0  0  0  0  0  0
   64.8861    4.6703   -2.8338 H   0  0  0  0  0  0  0  0  0  0  0  0
   61.1773    4.3512   -1.0836 H   0  0  0  0  0  0  0  0  0  0  0  0
   59.3177    2.4436   -0.7142 H   0  0  0  0  0  0  0  0  0  0  0  0
   76.4917    0.0168    0.0503 C   0  0  0  0  0  0  0  0  0  0  0  0
   77.1147   -1.2183    0.3166 C   0  0  0  0  0  0  0  0  0  0  0  0
   76.4619   -2.4423    0.6140 C   0  0  0  0  0  0  0  0  0  0  0  0
   77.4229   -3.4013    0.7828 C   0  0  0  0  0  0  0  0  0  0  0  0
   78.6911   -2.7901    0.5863 C   0  0  0  0  0  0  0  0  0  0  0  0
   78.4542   -1.4687    0.3173 N   0  0  0  0  0  0  0  0  0  0  0  0
   79.9480   -3.4015    0.6710 C   0  0  0  0  0  0  0  0  0  0  0  0
   79.9517   -4.8604    0.9361 C   0  0  0  0  0  0  0  0  0  0  0  0
   80.5407   -5.3873    2.0848 C   0  0  0  0  0  0  0  0  0  0  0  0
   80.5148   -6.7578    2.2894 C   0  0  0  0  0  0  0  0  0  0  0  0
   79.9541   -7.6075    1.4348 N   0  0  0  0  0  0  0  0  0  0  0  0
   79.3928   -7.1138    0.3360 C   0  0  0  0  0  0  0  0  0  0  0  0
   79.3636   -5.7587    0.0462 C   0  0  0  0  0  0  0  0  0  0  0  0
   81.1773   -2.7567    0.5284 C   0  0  0  0  0  0  0  0  0  0  0  0
   82.4593   -3.4368    0.5786 C   0  0  0  0  0  0  0  0  0  0  0  0
   83.4026   -2.4869    0.4116 C   0  0  0  0  0  0  0  0  0  0  0  0
   81.3625   -1.4250    0.3120 N   0  0  0  0  0  0  0  0  0  0  0  0
   82.6951   -1.2324    0.2473 C   0  0  0  0  0  0  0  0  0  0  0  0
   83.3570   -0.0032    0.0511 C   0  0  0  0  0  0  0  0  0  0  0  0
   82.7343    1.2413   -0.1675 C   0  0  0  0  0  0  0  0  0  0  0  0
   83.3872    2.4868   -0.3549 C   0  0  0  0  0  0  0  0  0  0  0  0
   82.4261    3.4388   -0.5599 C   0  0  0  0  0  0  0  0  0  0  0  0
   81.1578    2.7989   -0.5097 C   0  0  0  0  0  0  0  0  0  0  0  0
   81.3947    1.4737   -0.2601 N   0  0  0  0  0  0  0  0  0  0  0  0
   79.9007    3.3973   -0.6605 C   0  0  0  0  0  0  0  0  0  0  0  0
   79.8969    4.8484   -0.9655 C   0  0  0  0  0  0  0  0  0  0  0  0
   79.3082    5.7698   -0.1002 C   0  0  0  0  0  0  0  0  0  0  0  0
   79.3337    7.1162   -0.4278 C   0  0  0  0  0  0  0  0  0  0  0  0
   79.8940    7.5807   -1.5399 N   0  0  0  0  0  0  0  0  0  0  0  0
   80.4551    6.7091   -2.3715 C   0  0  0  0  0  0  0  0  0  0  0  0
   80.4845    5.3448   -2.1286 C   0  0  0  0  0  0  0  0  0  0  0  0
   78.6713    2.7467   -0.5478 C   0  0  0  0  0  0  0  0  0  0  0  0
   77.3891    3.3957   -0.7563 C   0  0  0  0  0  0  0  0  0  0  0  0
   76.4458    2.4532   -0.5520 C   0  0  0  0  0  0  0  0  0  0  0  0
   77.1534    1.2292   -0.2319 C   0  0  0  0  0  0  0  0  0  0  0  0
   78.4860    1.4317   -0.2459 N   0  0  0  0  0  0  0  0  0  0  0  0
   75.3935   -2.5638    0.6911 H   0  0  0  0  0  0  0  0  0  0  0  0
   77.2692   -4.4386    1.0313 H   0  0  0  0  0  0  0  0  0  0  0  0
   79.1773   -0.7776    0.1475 H   0  0  0  0  0  0  0  0  0  0  0  0
   80.9984   -4.7311    2.8153 H   0  0  0  0  0  0  0  0  0  0  0  0
   80.9630   -7.1914    3.1786 H   0  0  0  0  0  0  0  0  0  0  0  0
   78.9458   -7.8329   -0.3443 H   0  0  0  0  0  0  0  0  0  0  0  0
   78.9052   -5.4029   -0.8688 H   0  0  0  0  0  0  0  0  0  0  0  0
   82.5970   -4.4976    0.7110 H   0  0  0  0  0  0  0  0  0  0  0  0
   84.4747   -2.5989    0.3885 H   0  0  0  0  0  0  0  0  0  0  0  0
   84.4555    2.6283   -0.3305 H   0  0  0  0  0  0  0  0  0  0  0  0
   82.5800    4.4930   -0.7218 H   0  0  0  0  0  0  0  0  0  0  0  0
   80.6715    0.7698   -0.1557 H   0  0  0  0  0  0  0  0  0  0  0  0
   78.8509    5.4376    0.8241 H   0  0  0  0  0  0  0  0  0  0  0  0
   78.8855    7.8531    0.2323 H   0  0  0  0  0  0  0  0  0  0  0  0
   80.9018    7.1185   -3.2729 H   0  0  0  0  0  0  0  0  0  0  0  0
   80.9427    4.6702   -2.8421 H   0  0  0  0  0  0  0  0  0  0  0  0
   77.2513    4.4282   -1.0334 H   0  0  0  0  0  0  0  0  0  0  0  0
   75.3737    2.5485   -0.6143 H   0  0  0  0  0  0  0  0  0  0  0  0
   92.5293    0.0293    0.0300 C   0  0  0  0  0  0  0  0  0  0  0  0
   93.1668   -1.1991    0.2920 C   0  0  0  0  0  0  0  0  0  0  0  0
   92.5291   -2.4278    0.6032 C   0  0  0  0  0  0  0  0  0  0  0  0
   93.5009   -3.3775    0.7628 C   0  0  0  0  0  0  0  0  0  0  0  0
   94.7608   -2.7563    0.5450 C   0  0  0  0  0  0  0  0  0  0  0  0
   94.5084   -1.4377    0.2749 N   0  0  0  0  0  0  0  0  0  0  0  0
   96.0244   -3.3559    0.6089 C   0  0  0  0  0  0  0  0  0  0  0  0
   96.0485   -4.8129    0.8827 C   0  0  0  0  0  0  0  0  0  0  0  0
   96.6719   -5.3250    2.0200 C   0  0  0  0  0  0  0  0  0  0  0  0
   96.6653   -6.6940    2.2358 C   0  0  0  0  0  0  0  0  0  0  0  0
   96.0917   -7.5560    1.4024 N   0  0  0  0  0  0  0  0  0  0  0  0
   95.4977   -7.0766    0.3145 C   0  0  0  0  0  0  0  0  0  0  0  0
   95.4473   -5.7242    0.0151 C   0  0  0  0  0  0  0  0  0  0  0  0
   97.2448   -2.6996    0.4404 C   0  0  0  0  0  0  0  0  0  0  0  0
   98.5334   -3.3688    0.4612 C   0  0  0  0  0  0  0  0  0  0  0  0
   99.4649   -2.4098    0.2812 C   0  0  0  0  0  0  0  0  0  0  0  0
   97.4138   -1.3657    0.2266 N   0  0  0  0  0  0  0  0  0  0  0  0
   98.7437   -1.1604    0.1398 C   0  0  0  0  0  0  0  0  0  0  0  0
   99.3910    0.0777   -0.0465 C   0  0  0  0  0  0  0  0  0  0  0  0
   98.7544    1.3187   -0.2425 C   0  0  0  0  0  0  0  0  0  0  0  0
   99.3933    2.5727   -0.4213 C   0  0  0  0  0  0  0  0  0  0  0  0
   98.4211    3.5175   -0.6066 C   0  0  0  0  0  0  0  0  0  0  0  0
   97.1597    2.8645   -0.5527 C   0  0  0  0  0  0  0  0  0  0  0  0
   97.4117    1.5389   -0.3208 N   0  0  0  0  0  0  0  0  0  0  0  0
   95.8953    3.4513   -0.6870 C   0  0  0  0  0  0  0  0  0  0  0  0
   95.8732    4.9057   -0.9749 C   0  0  0  0  0  0  0  0  0  0  0  0
   95.2823    5.8100   -0.0932 C   0  0  0  0  0  0  0  0  0  0  0  0
   95.2909    7.1605   -0.4040 C   0  0  0  0  0  0  0  0  0  0  0  0
   95.8361    7.6448   -1.5153 N   0  0  0  0  0  0  0  0  0  0  0  0
   96.3987    6.7894   -2.3627 C   0  0  0  0  0  0  0  0  0  0  0  0
   96.4450    5.4226   -2.1369 C   0  0  0  0  0  0  0  0  0  0  0  0
   94.6742    2.7859   -0.5716 C   0  0  0  0  0  0  0  0  0  0  0  0
   93.3835    3.4219   -0.7668 C   0  0  0  0  0  0  0  0  0  0  0  0
   92.4524    2.4673   -0.5629 C   0  0  0  0  0  0  0  0  0  0  0  0
   93.1758    1.2494   -0.2551 C   0  0  0  0  0  0  0  0  0  0  0  0
   94.5059    1.4668   -0.2776 N   0  0  0  0  0  0  0  0  0  0  0  0
   91.4631   -2.5583    0.6962 H   0  0  0  0  0  0  0  0  0  0  0  0
   93.3597   -4.4150    1.0180 H   0  0  0  0  0  0  0  0  0  0  0  0
   95.2230   -0.7411    0.0926 H   0  0  0  0  0  0  0  0  0  0  0  0
   97.1415   -4.6586    2.7337 H   0  0  0  0  0  0  0  0  0  0  0  0
   97.1406   -7.1158    3.1166 H   0  0  0  0  0  0  0  0  0  0  0  0
   95.0411   -7.8056   -0.3486 H   0  0  0  0  0  0  0  0  0  0  0  0
   94.9626   -5.3806   -0.8910 H   0  0  0  0  0  0  0  0  0  0  0  0
   98.6827   -4.4292    0.5838 H   0  0  0  0  0  0  0  0  0  0  0  0
  100.5373   -2.5125    0.2360 H   0  0  0  0  0  0  0  0  0  0  0  0
  100.4605    2.7242   -0.4054 H   0  0  0  0  0  0  0  0  0  0  0  0
   98.5631    4.5750   -0.7578 H   0  0  0  0  0  0  0  0  0  0  0  0
   96.6963    0.8270   -0.2180 H   0  0  0  0  0  0  0  0  0  0  0  0
   94.8365    5.4614    0.8307 H   0  0  0  0  0  0  0  0  0  0  0  0
   94.8412    7.8844    0.2693 H   0  0  0  0  0  0  0  0  0  0  0  0
   96.8326    7.2146   -3.2630 H   0  0  0  0  0  0  0  0  0  0  0  0
   96.9042    4.7620   -2.8628 H   0  0  0  0  0  0  0  0  0  0  0  0
   93.2322    4.4547   -1.0356 H   0  0  0  0  0  0  0  0  0  0  0  0
   91.3788    2.5511   -0.6175 H   0  0  0  0  0  0  0  0  0  0  0  0
  1  2  4  0  0  0  0
  2  3  4  0  0  0  0
  3  4  2  0  0  0  0
  4  5  4  0  0  0  0
  2  6  4  0  0  0  0
  5  6  4  0  0  0  0
  5  7  4  0  0  0  0
  7  8  1  0  0  0  0
  8  9  4  0  0  0  0
  9 10  4  0  0  0  0
 10 11  4  0  0  0  0
 11 12  4  0  0  0  0
  8 13  4  0  0  0  0
 12 13  4  0  0  0  0
  7 14  4  0  0  0  0
 14 15  1  0  0  0  0
 15 16  2  0  0  0  0
 14 17  4  0  0  0  0
 16 18  1  0  0  0  0
 17 18  4  0  0  0  0
 18 19  4  0  0  0  0
 19 20  4  0  0  0  0
 20 21  4  0  0  0  0
 21 22  2  0  0  0  0
 22 23  4  0  0  0  0
 20 24  4  0  0  0  0
 23 24  4  0  0  0  0
 23 25  4  0  0  0  0
 25 26  1  0  0  0  0
 26 27  4  0  0  0  0
 27 28  4  0  0  0  0
 28 29  4  0  0  0  0
 29 30  4  0  0  0  0
 26 31  4  0  0  0  0
 30 31  4  0  0  0  0
 25 32  4  0  0  0  0
 32 33  1  0  0  0  0
 33 34  2  0  0  0  0
  1 35  4  0  0  0  0
 34 35  1  0  0  0  0
 32 36  4  0  0  0  0
 35 36  4  0  0  0  0
  1 37  1  0  0  0  0
  3 38  1  0  0  0  0
  4 39  1  0  0  0  0
  6 40  1  0  0  0  0
  9 41  1  0  0  0  0
 10 42  1  0  0  0  0
 12 43  1  0  0  0  0
 13 44  1  0  0  0  0
 15 45  1  0  0  0  0
 16 46  1  0  0  0  0
 21 47  1  0  0  0  0
 22 48  1  0  0  0  0
 24 49  1  0  0  0  0
 27 50  1  0  0  0  0
 28 51  1  0  0  0  0
 30 52  1  0  0  0  0
 31 53  1  0  0  0  0
 33 54  1  0  0  0  0
 34 55  1  0  0  0  0
 56 57  4  0  0  0  0
 57 58  4  0  0  0  0
 58 59  2  0  0  0  0
 59 60  4  0  0  0  0
 57 61  4  0  0  0  0
 60 61  4  0  0  0  0
 60 62  4  0  0  0  0
 62 63  1  0  0  0  0
 63 64  4  0  0  0  0
 64 65  4  0  0  0  0
 65 66  4  0  0  0  0
 66 67  4  0  0  0  0
 63 68  4  0  0  0  0
 67 68  4  0  0  0  0
 62 69  4  0  0  0  0
 69 70  1  0  0  0  0
 70 71  2  0  0  0  0
 69 72  4  0  0  0  0
 71 73  1  0  0  0  0
 72 73  4  0  0  0  0
 73 74  4  0  0  0  0
 74 75  4  0  0  0  0
 75 76  4  0  0  0  0
 76 77  2  0  0  0  0
 77 78  4  0  0  0  0
 75 79  4  0  0  0  0
 78 79  4  0  0  0  0
 78 80  4  0  0  0  0
 80 81  1  0  0  0  0
 81 82  4  0  0  0  0
 82 83  4  0  0  0  0
 83 84  4  0  0  0  0
 84 85  4  0  0  0  0
 81 86  4  0  0  0  0
 85 86  4  0  0  0  0
 80 87  4  0  0  0  0
 87 88  1  0  0  0  0
 88 89  2  0  0  0  0
 56 90  4  0  0  0  0
 89 90  1  0  0  0  0
 87 91  4  0  0  0  0
 90 91  4  0  0  0  0
 56 92  1  0  0  0  0
 58 93  1  0  0  0  0
 59 94  1  0  0  0  0
 61 95  1  0  0  0  0
 64 96  1  0  0  0  0
 65 97  1  0  0  0  0
 67 98  1  0  0  0  0
 68 99  1  0  0  0  0
 70100  1  0  0  0  0
 71101  1  0  0  0  0
 76102  1  0  0  0  0
 77103  1  0  0  0  0
 79104  1  0  0  0  0
 82105  1  0  0  0  0
 83106  1  0  0  0  0
 85107  1  0  0  0  0
 86108  1  0  0  0  0
 88109  1  0  0  0  0
 89110  1  0  0  0  0
111112  3  0  0  0  0
112113  4  0  0  0  0
 19114  4  0  0  0  0
113114  3  0  0  0  0
111115  4  0  0  0  0
115116  3  0  0  0  0
117118  3  0  0  0  0
118119  4  0  0  0  0
119120  3  0  0  0  0
117121  4  0  0  0  0
121122  3  0  0  0  0
123124  3  0  0  0  0
124125  4  0  0  0  0
125126  3  0  0  0  0
123127  4  0  0  0  0
127128  3  0  0  0  0
129130  3  0  0  0  0
130131  4  0  0  0  0
131132  3  0  0  0  0
129133  4  0  0  0  0
 74134  4  0  0  0  0
133134  3  0  0  0  0
116135  4  0  0  0  0
135136  4  0  0  0  0
136137  4  0  0  0  0
137138  2  0  0  0  0
138139  4  0  0  0  0
136140  4  0  0  0  0
139140  4  0  0  0  0
139141  4  0  0  0  0
141142  1  0  0  0  0
142143  4  0  0  0  0
143144  4  0  0  0  0
144145  4  0  0  0  0
145146  4  0  0  0  0
142147  4  0  0  0  0
146147  4  0  0  0  0
141148  4  0  0  0  0
148149  1  0  0  0  0
149150  2  0  0  0  0
148151  4  0  0  0  0
150152  1  0  0  0  0
151152  4  0  0  0  0
120153  4  0  0  0  0
152153  4  0  0  0  0
153154  4  0  0  0  0
154155  4  0  0  0  0
155156  2  0  0  0  0
156157  4  0  0  0  0
154158  4  0  0  0  0
157158  4  0  0  0  0
157159  4  0  0  0  0
159160  1  0  0  0  0
160161  4  0  0  0  0
161162  4  0  0  0  0
162163  4  0  0  0  0
163164  4  0  0  0  0
160165  4  0  0  0  0
164165  4  0  0  0  0
159166  4  0  0  0  0
166167  1  0  0  0  0
167168  2  0  0  0  0
135169  4  0  0  0  0
168169  1  0  0  0  0
166170  4  0  0  0  0
169170  4  0  0  0  0
137171  1  0  0  0  0
138172  1  0  0  0  0
140173  1  0  0  0  0
143174  1  0  0  0  0
144175  1  0  0  0  0
146176  1  0  0  0  0
147177  1  0  0  0  0
149178  1  0  0  0  0
150179  1  0  0  0  0
155180  1  0  0  0  0
156181  1  0  0  0  0
158182  1  0  0  0  0
161183  1  0  0  0  0
162184  1  0  0  0  0
164185  1  0  0  0  0
165186  1  0  0  0  0
167187  1  0  0  0  0
168188  1  0  0  0  0
122189  4  0  0  0  0
189190  4  0  0  0  0
190191  4  0  0  0  0
191192  2  0  0  0  0
192193  4  0  0  0  0
190194  4  0  0  0  0
193194  4  0  0  0  0
193195  4  0  0  0  0
195196  1  0  0  0  0
196197  4  0  0  0  0
197198  4  0  0  0  0
198199  4  0  0  0  0
199200  4  0  0  0  0
196201  4  0  0  0  0
200201  4  0  0  0  0
195202  4  0  0  0  0
202203  1  0  0  0  0
203204  2  0  0  0  0
202205  4  0  0  0  0
204206  1  0  0  0  0
205206  4  0  0  0  0
126207  4  0  0  0  0
206207  4  0  0  0  0
207208  4  0  0  0  0
208209  4  0  0  0  0
209210  2  0  0  0  0
210211  4  0  0  0  0
208212  4  0  0  0  0
211212  4  0  0  0  0
211213  4  0  0  0  0
213214  1  0  0  0  0
214215  4  0  0  0  0
215216  4  0  0  0  0
216217  4  0  0  0  0
217218  4  0  0  0  0
214219  4  0  0  0  0
218219  4  0  0  0  0
213220  4  0  0  0  0
220221  1  0  0  0  0
221222  2  0  0  0  0
189223  4  0  0  0  0
222223  1  0  0  0  0
220224  4  0  0  0  0
223224  4  0  0  0  0
191225  1  0  0  0  0
192226  1  0  0  0  0
194227  1  0  0  0  0
197228  1  0  0  0  0
198229  1  0  0  0  0
200230  1  0  0  0  0
201231  1  0  0  0  0
203232  1  0  0  0  0
204233  1  0  0  0  0
209234  1  0  0  0  0
210235  1  0  0  0  0
212236  1  0  0  0  0
215237  1  0  0  0  0
216238  1  0  0  0  0
218239  1  0  0  0  0
219240  1  0  0  0  0
221241  1  0  0  0  0
222242  1  0  0  0  0
128243  4  0  0  0  0
243244  4  0  0  0  0
244245  4  0  0  0  0
245246  2  0  0  0  0
246247  4  0  0  0  0
244248  4  0  0  0  0
247248  4  0  0  0  0
247249  4  0  0  0  0
249250  1  0  0  0  0
250251  4  0  0  0  0
251252  4  0  0  0  0
252253  4  0  0  0  0
253254  4  0  0  0  0
250255  4  0  0  0  0
254255  4  0  0  0  0
249256  4  0  0  0  0
256257  1  0  0  0  0
257258  2  0  0  0  0
256259  4  0  0  0  0
258260  1  0  0  0  0
259260  4  0  0  0  0
132261  4  0  0  0  0
260261  4  0  0  0  0
261262  4  0  0  0  0
262263  4  0  0  0  0
263264  2  0  0  0  0
264265  4  0  0  0  0
262266  4  0  0  0  0
265266  4  0  0  0  0
265267  4  0  0  0  0
267268  1  0  0  0  0
268269  4  0  0  0  0
269270  4  0  0  0  0
270271  4  0  0  0  0
271272  4  0  0  0  0
268273  4  0  0  0  0
272273  4  0  0  0  0
267274  4  0  0  0  0
274275  1  0  0  0  0
275276  2  0  0  0  0
243277  4  0  0  0  0
276277  1  0  0  0  0
274278  4  0  0  0  0
277278  4  0  0  0  0
245279  1  0  0  0  0
246280  1  0  0  0  0
248281  1  0  0  0  0
251282  1  0  0  0  0
252283  1  0  0  0  0
254284  1  0  0  0  0
255285  1  0  0  0  0
257286  1  0  0  0  0
258287  1  0  0  0  0
263288  1  0  0  0  0
264289  1  0  0  0  0
266290  1  0  0  0  0
269291  1  0  0  0  0
270292  1  0  0  0  0
272293  1  0  0  0  0
273294  1  0  0  0  0
275295  1  0  0  0  0
276296  1  0  0  0  0
M  END
