 xtb: 6.5.1 (b24c23e)
          07292223123D

262301  0     0  0            999 V2000
   40.4513    0.0042   -0.0696 Co  0  0  0  0  0  0  0  0  0  0  0  0
   37.0826    0.0750   -0.2485 C   0  0  0  0  0  0  0  0  0  0  0  0
   37.7675    1.2686   -0.3193 C   0  0  0  0  0  0  0  0  0  0  0  0
   37.1286    2.5428   -0.4506 C   0  0  0  0  0  0  0  0  0  0  0  0
   38.0868    3.4787   -0.2580 C   0  0  0  0  0  0  0  0  0  0  0  0
   39.3141    2.7748   -0.0246 C   0  0  0  0  0  0  0  0  0  0  0  0
   39.1150    1.4206   -0.1067 N   0  0  0  0  0  0  0  0  0  0  0  0
   40.4939    3.3811    0.3863 C   0  0  0  0  0  0  0  0  0  0  0  0
   40.5106    4.8465    0.6048 C   0  0  0  0  0  0  0  0  0  0  0  0
   40.7084    5.3654    1.8872 C   0  0  0  0  0  0  0  0  0  0  0  0
   40.7224    6.7320    2.0907 C   0  0  0  0  0  0  0  0  0  0  0  0
   40.5444    7.6092    1.0159 C   0  0  0  0  0  0  0  0  0  0  0  0
   40.5666    9.0635    1.2585 C   0  0  0  0  0  0  0  0  0  0  0  0
   40.7313    9.5583    2.3440 O   0  0  0  0  0  0  0  0  0  0  0  0
   40.3501    7.0905   -0.2664 C   0  0  0  0  0  0  0  0  0  0  0  0
   40.3312    5.7218   -0.4691 C   0  0  0  0  0  0  0  0  0  0  0  0
   41.6616    2.6615    0.5861 C   0  0  0  0  0  0  0  0  0  0  0  0
   42.9136    3.2561    0.9482 C   0  0  0  0  0  0  0  0  0  0  0  0
   43.8574    2.2951    0.8089 C   0  0  0  0  0  0  0  0  0  0  0  0
   41.8345    1.3310    0.2761 N   0  0  0  0  0  0  0  0  0  0  0  0
   43.1804    1.1170    0.3672 C   0  0  0  0  0  0  0  0  0  0  0  0
   43.8443   -0.0474   -0.0288 C   0  0  0  0  0  0  0  0  0  0  0  0
   43.1514   -1.2031   -0.3977 C   0  0  0  0  0  0  0  0  0  0  0  0
   43.7972   -2.4125   -0.7995 C   0  0  0  0  0  0  0  0  0  0  0  0
   42.8318   -3.3594   -0.8794 C   0  0  0  0  0  0  0  0  0  0  0  0
   41.5992   -2.7232   -0.5238 C   0  0  0  0  0  0  0  0  0  0  0  0
   41.8010   -1.3831   -0.2876 N   0  0  0  0  0  0  0  0  0  0  0  0
   40.3951   -3.3933   -0.3642 C   0  0  0  0  0  0  0  0  0  0  0  0
   40.3749   -4.8677   -0.4849 C   0  0  0  0  0  0  0  0  0  0  0  0
   39.5875   -5.4868   -1.4597 C   0  0  0  0  0  0  0  0  0  0  0  0
   39.5712   -6.8653   -1.5759 C   0  0  0  0  0  0  0  0  0  0  0  0
   40.3383   -7.6531   -0.7144 C   0  0  0  0  0  0  0  0  0  0  0  0
   40.3350   -9.1242   -0.8148 C   0  0  0  0  0  0  0  0  0  0  0  0
   40.9761   -9.8454   -0.0942 O   0  0  0  0  0  0  0  0  0  0  0  0
   41.1253   -7.0340    0.2623 C   0  0  0  0  0  0  0  0  0  0  0  0
   41.1464   -5.6571    0.3735 C   0  0  0  0  0  0  0  0  0  0  0  0
   39.2074   -2.7181   -0.1153 C   0  0  0  0  0  0  0  0  0  0  0  0
   37.9385   -3.3605    0.0679 C   0  0  0  0  0  0  0  0  0  0  0  0
   37.0030   -2.3822    0.0772 C   0  0  0  0  0  0  0  0  0  0  0  0
   37.7032   -1.1435   -0.0769 C   0  0  0  0  0  0  0  0  0  0  0  0
   39.0578   -1.3550   -0.1341 N   0  0  0  0  0  0  0  0  0  0  0  0
   36.0010    0.0979   -0.3094 H   0  0  0  0  0  0  0  0  0  0  0  0
   36.0762    2.6815   -0.6402 H   0  0  0  0  0  0  0  0  0  0  0  0
   37.9816    4.5514   -0.2526 H   0  0  0  0  0  0  0  0  0  0  0  0
   40.8364    4.6870    2.7231 H   0  0  0  0  0  0  0  0  0  0  0  0
   40.8700    7.1442    3.0832 H   0  0  0  0  0  0  0  0  0  0  0  0
   40.4171    9.6800    0.3465 H   0  0  0  0  0  0  0  0  0  0  0  0
   40.2154    7.7644   -1.1063 H   0  0  0  0  0  0  0  0  0  0  0  0
   40.1928    5.3216   -1.4671 H   0  0  0  0  0  0  0  0  0  0  0  0
   43.0454    4.2843    1.2429 H   0  0  0  0  0  0  0  0  0  0  0  0
   44.9206    2.3646    0.9730 H   0  0  0  0  0  0  0  0  0  0  0  0
   44.8553   -2.5099   -0.9813 H   0  0  0  0  0  0  0  0  0  0  0  0
   42.9330   -4.3962   -1.1558 H   0  0  0  0  0  0  0  0  0  0  0  0
   39.0014   -4.8775   -2.1385 H   0  0  0  0  0  0  0  0  0  0  0  0
   38.9619   -7.3374   -2.3398 H   0  0  0  0  0  0  0  0  0  0  0  0
   39.6838   -9.5246   -1.6209 H   0  0  0  0  0  0  0  0  0  0  0  0
   41.7154   -7.6540    0.9286 H   0  0  0  0  0  0  0  0  0  0  0  0
   41.7488   -5.1803    1.1384 H   0  0  0  0  0  0  0  0  0  0  0  0
   37.7959   -4.4240    0.1703 H   0  0  0  0  0  0  0  0  0  0  0  0
   35.9330   -2.4705    0.1774 H   0  0  0  0  0  0  0  0  0  0  0  0
   96.0088   -0.0257   -0.1105 Co  0  0  0  0  0  0  0  0  0  0  0  0
   99.3795   -0.0725   -0.2777 C   0  0  0  0  0  0  0  0  0  0  0  0
   98.6958   -1.2461   -0.5089 C   0  0  0  0  0  0  0  0  0  0  0  0
   99.3385   -2.4919   -0.7985 C   0  0  0  0  0  0  0  0  0  0  0  0
   98.3811   -3.4461   -0.7347 C   0  0  0  0  0  0  0  0  0  0  0  0
   97.1499   -2.7793   -0.4254 C   0  0  0  0  0  0  0  0  0  0  0  0
   97.3470   -1.4257   -0.3279 N   0  0  0  0  0  0  0  0  0  0  0  0
   95.9640   -3.4345   -0.1224 C   0  0  0  0  0  0  0  0  0  0  0  0
   95.9463   -4.9160   -0.1008 C   0  0  0  0  0  0  0  0  0  0  0  0
   95.7195   -5.6000    1.0966 C   0  0  0  0  0  0  0  0  0  0  0  0
   95.7058   -6.9815    1.1175 C   0  0  0  0  0  0  0  0  0  0  0  0
   95.9130   -7.7090   -0.0591 C   0  0  0  0  0  0  0  0  0  0  0  0
   95.8915   -9.1825   -0.0113 C   0  0  0  0  0  0  0  0  0  0  0  0
   95.7027   -9.8169    0.9948 O   0  0  0  0  0  0  0  0  0  0  0  0
   96.1355   -7.0253   -1.2567 C   0  0  0  0  0  0  0  0  0  0  0  0
   96.1538   -5.6418   -1.2763 C   0  0  0  0  0  0  0  0  0  0  0  0
   94.7893   -2.7478    0.1418 C   0  0  0  0  0  0  0  0  0  0  0  0
   93.5297   -3.3873    0.3793 C   0  0  0  0  0  0  0  0  0  0  0  0
   92.5864   -2.4164    0.3475 C   0  0  0  0  0  0  0  0  0  0  0  0
   94.6206   -1.3870    0.0166 N   0  0  0  0  0  0  0  0  0  0  0  0
   93.2714   -1.1875    0.0990 C   0  0  0  0  0  0  0  0  0  0  0  0
   92.6148    0.0245   -0.1281 C   0  0  0  0  0  0  0  0  0  0  0  0
   93.3125    1.2229   -0.2924 C   0  0  0  0  0  0  0  0  0  0  0  0
   92.6712    2.4820   -0.5035 C   0  0  0  0  0  0  0  0  0  0  0  0
   93.6361    3.4285   -0.4138 C   0  0  0  0  0  0  0  0  0  0  0  0
   94.8644    2.7419   -0.1491 C   0  0  0  0  0  0  0  0  0  0  0  0
   94.6612    1.3816   -0.1328 N   0  0  0  0  0  0  0  0  0  0  0  0
   96.0674    3.3780    0.1205 C   0  0  0  0  0  0  0  0  0  0  0  0
   96.0873    4.8534    0.2303 C   0  0  0  0  0  0  0  0  0  0  0  0
   96.8727    5.6166   -0.6382 C   0  0  0  0  0  0  0  0  0  0  0  0
   96.8886    6.9964   -0.5392 C   0  0  0  0  0  0  0  0  0  0  0  0
   96.1229    7.6407    0.4354 C   0  0  0  0  0  0  0  0  0  0  0  0
   96.1261    9.1096    0.5643 C   0  0  0  0  0  0  0  0  0  0  0  0
   95.4862    9.7103    1.3889 O   0  0  0  0  0  0  0  0  0  0  0  0
   95.3374    6.8772    1.3054 C   0  0  0  0  0  0  0  0  0  0  0  0
   95.3167    5.4998    1.2016 C   0  0  0  0  0  0  0  0  0  0  0  0
   97.2544    2.6723    0.2628 C   0  0  0  0  0  0  0  0  0  0  0  0
   98.5239    3.2799    0.5381 C   0  0  0  0  0  0  0  0  0  0  0  0
   99.4592    2.3118    0.3969 C   0  0  0  0  0  0  0  0  0  0  0  0
   98.7583    1.1098    0.0619 C   0  0  0  0  0  0  0  0  0  0  0  0
   97.4037    1.3272    0.0387 N   0  0  0  0  0  0  0  0  0  0  0  0
  100.4612   -0.0866   -0.3388 H   0  0  0  0  0  0  0  0  0  0  0  0
  100.3928   -2.6038   -0.9955 H   0  0  0  0  0  0  0  0  0  0  0  0
   98.4890   -4.5104   -0.8658 H   0  0  0  0  0  0  0  0  0  0  0  0
   95.5686   -5.0380    2.0113 H   0  0  0  0  0  0  0  0  0  0  0  0
   95.5361   -7.5213    2.0430 H   0  0  0  0  0  0  0  0  0  0  0  0
   96.0658   -9.6729   -0.9929 H   0  0  0  0  0  0  0  0  0  0  0  0
   96.2925   -7.5822   -2.1747 H   0  0  0  0  0  0  0  0  0  0  0  0
   96.3139   -5.1132   -2.2092 H   0  0  0  0  0  0  0  0  0  0  0  0
   93.3936   -4.4468    0.5223 H   0  0  0  0  0  0  0  0  0  0  0  0
   91.5191   -2.5083    0.4683 H   0  0  0  0  0  0  0  0  0  0  0  0
   91.6159    2.6084   -0.6834 H   0  0  0  0  0  0  0  0  0  0  0  0
   93.5375    4.4965   -0.5200 H   0  0  0  0  0  0  0  0  0  0  0  0
   97.4577    5.1202   -1.4043 H   0  0  0  0  0  0  0  0  0  0  0  0
   97.4964    7.5815   -1.2217 H   0  0  0  0  0  0  0  0  0  0  0  0
   96.7761    9.6301   -0.1710 H   0  0  0  0  0  0  0  0  0  0  0  0
   94.7481    7.3862    2.0605 H   0  0  0  0  0  0  0  0  0  0  0  0
   94.7152    4.9098    1.8838 H   0  0  0  0  0  0  0  0  0  0  0  0
   98.6669    4.3158    0.7993 H   0  0  0  0  0  0  0  0  0  0  0  0
  100.5294    2.3841    0.5067 H   0  0  0  0  0  0  0  0  0  0  0  0
   45.2462   -0.0594   -0.0382 C   0  0  0  0  0  0  0  0  0  0  0  0
   46.4714   -0.0637   -0.0424 C   0  0  0  0  0  0  0  0  0  0  0  0
   47.8124   -0.0660   -0.0450 C   0  0  0  0  0  0  0  0  0  0  0  0
   49.0441   -0.0625   -0.0460 C   0  0  0  0  0  0  0  0  0  0  0  0
   50.3800   -0.0579   -0.0432 C   0  0  0  0  0  0  0  0  0  0  0  0
   51.6119   -0.0530   -0.0382 C   0  0  0  0  0  0  0  0  0  0  0  0
   52.9523   -0.0473   -0.0324 C   0  0  0  0  0  0  0  0  0  0  0  0
   54.1780   -0.0423   -0.0245 C   0  0  0  0  0  0  0  0  0  0  0  0
   63.7630   -0.0239   -0.0764 C   0  0  0  0  0  0  0  0  0  0  0  0
   64.9888   -0.0188   -0.0872 C   0  0  0  0  0  0  0  0  0  0  0  0
   66.3290   -0.0142   -0.0946 C   0  0  0  0  0  0  0  0  0  0  0  0
   67.5612   -0.0108   -0.0972 C   0  0  0  0  0  0  0  0  0  0  0  0
   68.8968   -0.0073   -0.0956 C   0  0  0  0  0  0  0  0  0  0  0  0
   70.1289   -0.0048   -0.0904 C   0  0  0  0  0  0  0  0  0  0  0  0
   71.4692   -0.0042   -0.0809 C   0  0  0  0  0  0  0  0  0  0  0  0
   72.6950   -0.0041   -0.0685 C   0  0  0  0  0  0  0  0  0  0  0  0
   82.2804    0.0259   -0.1563 C   0  0  0  0  0  0  0  0  0  0  0  0
   83.5054    0.0367   -0.1807 C   0  0  0  0  0  0  0  0  0  0  0  0
   84.8465    0.0461   -0.2001 C   0  0  0  0  0  0  0  0  0  0  0  0
   86.0780    0.0513   -0.2095 C   0  0  0  0  0  0  0  0  0  0  0  0
   87.4147    0.0542   -0.2106 C   0  0  0  0  0  0  0  0  0  0  0  0
   88.6460    0.0545   -0.2034 C   0  0  0  0  0  0  0  0  0  0  0  0
   89.9877    0.0484   -0.1866 C   0  0  0  0  0  0  0  0  0  0  0  0
   91.2123    0.0405   -0.1631 C   0  0  0  0  0  0  0  0  0  0  0  0
   58.9707   -0.0387   -0.0286 Co  0  0  0  0  0  0  0  0  0  0  0  0
   55.5783   -0.0420   -0.0171 C   0  0  0  0  0  0  0  0  0  0  0  0
   56.2615    1.1770    0.0464 C   0  0  0  0  0  0  0  0  0  0  0  0
   55.6144    2.4498    0.0701 C   0  0  0  0  0  0  0  0  0  0  0  0
   56.5691    3.3646    0.3702 C   0  0  0  0  0  0  0  0  0  0  0  0
   57.7937    2.6424    0.5362 C   0  0  0  0  0  0  0  0  0  0  0  0
   57.6033    1.3080    0.2668 N   0  0  0  0  0  0  0  0  0  0  0  0
   58.9706    3.1916    1.0289 C   0  0  0  0  0  0  0  0  0  0  0  0
   58.9667    4.5963    1.4906 C   0  0  0  0  0  0  0  0  0  0  0  0
   59.8314    5.5339    0.9172 C   0  0  0  0  0  0  0  0  0  0  0  0
   59.8239    6.8457    1.3504 C   0  0  0  0  0  0  0  0  0  0  0  0
   58.9565    7.2492    2.3708 C   0  0  0  0  0  0  0  0  0  0  0  0
   58.9722    8.6543    2.8191 C   0  0  0  0  0  0  0  0  0  0  0  0
   59.6987    9.4953    2.3558 O   0  0  0  0  0  0  0  0  0  0  0  0
   58.0932    6.3133    2.9453 C   0  0  0  0  0  0  0  0  0  0  0  0
   58.0963    5.0012    2.5067 C   0  0  0  0  0  0  0  0  0  0  0  0
   60.1500    2.4624    1.0952 C   0  0  0  0  0  0  0  0  0  0  0  0
   61.3817    2.9601    1.6291 C   0  0  0  0  0  0  0  0  0  0  0  0
   62.3387    2.0544    1.3106 C   0  0  0  0  0  0  0  0  0  0  0  0
   60.3392    1.2222    0.5307 N   0  0  0  0  0  0  0  0  0  0  0  0
   61.6852    1.0019    0.5999 C   0  0  0  0  0  0  0  0  0  0  0  0
   62.3629   -0.0304   -0.0577 C   0  0  0  0  0  0  0  0  0  0  0  0
   61.6760   -1.0735   -0.6879 C   0  0  0  0  0  0  0  0  0  0  0  0
   62.3187   -2.1316   -1.4000 C   0  0  0  0  0  0  0  0  0  0  0  0
   61.3634   -3.0561   -1.6660 C   0  0  0  0  0  0  0  0  0  0  0  0
   60.1431   -2.5604   -1.1054 C   0  0  0  0  0  0  0  0  0  0  0  0
   60.3362   -1.3098   -0.5678 N   0  0  0  0  0  0  0  0  0  0  0  0
   58.9697   -3.2957   -1.0003 C   0  0  0  0  0  0  0  0  0  0  0  0
   58.9694   -4.7113   -1.4277 C   0  0  0  0  0  0  0  0  0  0  0  0
   59.8475   -5.6261   -0.8396 C   0  0  0  0  0  0  0  0  0  0  0  0
   59.8455   -6.9522   -1.2341 C   0  0  0  0  0  0  0  0  0  0  0  0
   58.9696   -7.3884   -2.2310 C   0  0  0  0  0  0  0  0  0  0  0  0
   58.9489   -8.7959   -2.6716 C   0  0  0  0  0  0  0  0  0  0  0  0
   58.2138   -9.2173   -3.5270 O   0  0  0  0  0  0  0  0  0  0  0  0
   58.0943   -6.4721   -2.8233 C   0  0  0  0  0  0  0  0  0  0  0  0
   58.0917   -5.1496   -2.4242 C   0  0  0  0  0  0  0  0  0  0  0  0
   57.7951   -2.7388   -0.5124 C   0  0  0  0  0  0  0  0  0  0  0  0
   56.5688   -3.4569   -0.3389 C   0  0  0  0  0  0  0  0  0  0  0  0
   55.6119   -2.5350   -0.0704 C   0  0  0  0  0  0  0  0  0  0  0  0
   56.2604   -1.2625   -0.0657 C   0  0  0  0  0  0  0  0  0  0  0  0
   57.6044   -1.3990   -0.2670 N   0  0  0  0  0  0  0  0  0  0  0  0
   54.5631    2.6059   -0.1105 H   0  0  0  0  0  0  0  0  0  0  0  0
   56.4636    4.4324    0.4720 H   0  0  0  0  0  0  0  0  0  0  0  0
   60.4953    5.2274    0.1169 H   0  0  0  0  0  0  0  0  0  0  0  0
   60.4872    7.5805    0.9070 H   0  0  0  0  0  0  0  0  0  0  0  0
   58.2499    8.8818    3.6318 H   0  0  0  0  0  0  0  0  0  0  0  0
   57.4192    6.6172    3.7396 H   0  0  0  0  0  0  0  0  0  0  0  0
   57.4343    4.2740    2.9631 H   0  0  0  0  0  0  0  0  0  0  0  0
   61.4908    3.8852    2.1711 H   0  0  0  0  0  0  0  0  0  0  0  0
   63.3950    2.0856    1.5240 H   0  0  0  0  0  0  0  0  0  0  0  0
   63.3675   -2.1543   -1.6480 H   0  0  0  0  0  0  0  0  0  0  0  0
   61.4658   -3.9911   -2.1923 H   0  0  0  0  0  0  0  0  0  0  0  0
   60.5194   -5.2930   -0.0566 H   0  0  0  0  0  0  0  0  0  0  0  0
   60.5254   -7.6572   -0.7670 H   0  0  0  0  0  0  0  0  0  0  0  0
   59.6759   -9.4496   -2.1443 H   0  0  0  0  0  0  0  0  0  0  0  0
   57.4210   -6.8191   -3.5997 H   0  0  0  0  0  0  0  0  0  0  0  0
   57.4212   -4.4392   -2.8942 H   0  0  0  0  0  0  0  0  0  0  0  0
   56.4630   -4.5265   -0.4188 H   0  0  0  0  0  0  0  0  0  0  0  0
   54.5588   -2.6863    0.1029 H   0  0  0  0  0  0  0  0  0  0  0  0
   77.4877   -0.0063   -0.0549 Co  0  0  0  0  0  0  0  0  0  0  0  0
   74.0952   -0.0062   -0.0527 C   0  0  0  0  0  0  0  0  0  0  0  0
   74.7793    1.2106    0.0357 C   0  0  0  0  0  0  0  0  0  0  0  0
   74.1321    2.4830    0.0817 C   0  0  0  0  0  0  0  0  0  0  0  0
   75.0864    3.3922    0.3986 C   0  0  0  0  0  0  0  0  0  0  0  0
   76.3115    2.6675    0.5507 C   0  0  0  0  0  0  0  0  0  0  0  0
   76.1209    1.3375    0.2593 N   0  0  0  0  0  0  0  0  0  0  0  0
   77.4904    3.2108    1.0439 C   0  0  0  0  0  0  0  0  0  0  0  0
   77.4899    4.6112    1.5187 C   0  0  0  0  0  0  0  0  0  0  0  0
   78.3479    5.5540    0.9437 C   0  0  0  0  0  0  0  0  0  0  0  0
   78.3422    6.8629    1.3853 C   0  0  0  0  0  0  0  0  0  0  0  0
   77.4834    7.2582    2.4162 C   0  0  0  0  0  0  0  0  0  0  0  0
   77.4991    8.6612    2.8715 C   0  0  0  0  0  0  0  0  0  0  0  0
   78.2170    9.5072    2.4040 O   0  0  0  0  0  0  0  0  0  0  0  0
   76.6277    6.3169    2.9931 C   0  0  0  0  0  0  0  0  0  0  0  0
   76.6288    5.0077    2.5459 C   0  0  0  0  0  0  0  0  0  0  0  0
   78.6718    2.4826    1.0901 C   0  0  0  0  0  0  0  0  0  0  0  0
   79.9077    2.9776    1.6167 C   0  0  0  0  0  0  0  0  0  0  0  0
   80.8644    2.0806    1.2737 C   0  0  0  0  0  0  0  0  0  0  0  0
   78.8585    1.2511    0.5071 N   0  0  0  0  0  0  0  0  0  0  0  0
   80.2065    1.0352    0.5569 C   0  0  0  0  0  0  0  0  0  0  0  0
   80.8797    0.0128   -0.1195 C   0  0  0  0  0  0  0  0  0  0  0  0
   80.1897   -1.0307   -0.7441 C   0  0  0  0  0  0  0  0  0  0  0  0
   80.8289   -2.0890   -1.4588 C   0  0  0  0  0  0  0  0  0  0  0  0
   79.8756   -3.0207   -1.7066 C   0  0  0  0  0  0  0  0  0  0  0  0
   78.6593   -2.5272   -1.1358 C   0  0  0  0  0  0  0  0  0  0  0  0
   78.8518   -1.2734   -0.6072 N   0  0  0  0  0  0  0  0  0  0  0  0
   77.4880   -3.2655   -1.0219 C   0  0  0  0  0  0  0  0  0  0  0  0
   77.4947   -4.6854   -1.4349 C   0  0  0  0  0  0  0  0  0  0  0  0
   78.3774   -5.5880   -0.8348 C   0  0  0  0  0  0  0  0  0  0  0  0
   78.3833   -6.9188   -1.2125 C   0  0  0  0  0  0  0  0  0  0  0  0
   77.5105   -7.3724   -2.2045 C   0  0  0  0  0  0  0  0  0  0  0  0
   77.4969   -8.7857   -2.6258 C   0  0  0  0  0  0  0  0  0  0  0  0
   76.7633   -9.2229   -3.4747 O   0  0  0  0  0  0  0  0  0  0  0  0
   76.6316   -6.4682   -2.8098 C   0  0  0  0  0  0  0  0  0  0  0  0
   76.6214   -5.1407   -2.4276 C   0  0  0  0  0  0  0  0  0  0  0  0
   76.3119   -2.7069   -0.5415 C   0  0  0  0  0  0  0  0  0  0  0  0
   75.0829   -3.4229   -0.3767 C   0  0  0  0  0  0  0  0  0  0  0  0
   74.1248   -2.4988   -0.1210 C   0  0  0  0  0  0  0  0  0  0  0  0
   74.7754   -1.2273   -0.1108 C   0  0  0  0  0  0  0  0  0  0  0  0
   76.1206   -1.3658   -0.3003 N   0  0  0  0  0  0  0  0  0  0  0  0
   73.0808    2.6421   -0.0963 H   0  0  0  0  0  0  0  0  0  0  0  0
   74.9807    4.4579    0.5199 H   0  0  0  0  0  0  0  0  0  0  0  0
   79.0048    5.2538    0.1352 H   0  0  0  0  0  0  0  0  0  0  0  0
   78.9999    7.6018    0.9403 H   0  0  0  0  0  0  0  0  0  0  0  0
   76.7857    8.8817    3.6938 H   0  0  0  0  0  0  0  0  0  0  0  0
   75.9608    6.6145    3.7957 H   0  0  0  0  0  0  0  0  0  0  0  0
   75.9723    4.2763    3.0036 H   0  0  0  0  0  0  0  0  0  0  0  0
   80.0195    3.8954    2.1705 H   0  0  0  0  0  0  0  0  0  0  0  0
   81.9230    2.1130    1.4749 H   0  0  0  0  0  0  0  0  0  0  0  0
   81.8748   -2.1077   -1.7192 H   0  0  0  0  0  0  0  0  0  0  0  0
   79.9765   -3.9586   -2.2280 H   0  0  0  0  0  0  0  0  0  0  0  0
   79.0470   -5.2411   -0.0558 H   0  0  0  0  0  0  0  0  0  0  0  0
   79.0666   -7.6142   -0.7360 H   0  0  0  0  0  0  0  0  0  0  0  0
   78.2278   -9.4283   -2.0903 H   0  0  0  0  0  0  0  0  0  0  0  0
   75.9614   -6.8284   -3.5829 H   0  0  0  0  0  0  0  0  0  0  0  0
   75.9484   -4.4397   -2.9082 H   0  0  0  0  0  0  0  0  0  0  0  0
   74.9761   -4.4925   -0.4544 H   0  0  0  0  0  0  0  0  0  0  0  0
   73.0698   -2.6482    0.0427 H   0  0  0  0  0  0  0  0  0  0  0  0
  2  3  4  0  0  0  0
  3  4  1  0  0  0  0
  4  5  2  0  0  0  0
  5  6  4  0  0  0  0
  1  7  1  0  0  0  0
  3  7  4  0  0  0  0
  6  7  4  0  0  0  0
  6  8  4  0  0  0  0
  8  9  1  0  0  0  0
  9 10  4  0  0  0  0
 10 11  4  0  0  0  0
 11 12  4  0  0  0  0
 12 13  1  0  0  0  0
 13 14  2  0  0  0  0
 12 15  4  0  0  0  0
  9 16  4  0  0  0  0
 15 16  4  0  0  0  0
  8 17  4  0  0  0  0
 17 18  4  0  0  0  0
 18 19  2  0  0  0  0
  1 20  1  0  0  0  0
 17 20  4  0  0  0  0
 19 21  4  0  0  0  0
 20 21  4  0  0  0  0
 21 22  4  0  0  0  0
 22 23  4  0  0  0  0
 23 24  4  0  0  0  0
 24 25  2  0  0  0  0
 25 26  4  0  0  0  0
  1 27  1  0  0  0  0
 23 27  4  0  0  0  0
 26 27  4  0  0  0  0
 26 28  4  0  0  0  0
 28 29  1  0  0  0  0
 29 30  4  0  0  0  0
 30 31  4  0  0  0  0
 31 32  4  0  0  0  0
 32 33  1  0  0  0  0
 33 34  2  0  0  0  0
 32 35  4  0  0  0  0
 29 36  4  0  0  0  0
 35 36  4  0  0  0  0
 28 37  4  0  0  0  0
 37 38  4  0  0  0  0
 38 39  2  0  0  0  0
  2 40  4  0  0  0  0
 39 40  1  0  0  0  0
  1 41  1  0  0  0  0
 37 41  4  0  0  0  0
 40 41  4  0  0  0  0
  2 42  1  0  0  0  0
  4 43  1  0  0  0  0
  5 44  1  0  0  0  0
 10 45  1  0  0  0  0
 11 46  1  0  0  0  0
 13 47  1  0  0  0  0
 15 48  1  0  0  0  0
 16 49  1  0  0  0  0
 18 50  1  0  0  0  0
 19 51  1  0  0  0  0
 24 52  1  0  0  0  0
 25 53  1  0  0  0  0
 30 54  1  0  0  0  0
 31 55  1  0  0  0  0
 33 56  1  0  0  0  0
 35 57  1  0  0  0  0
 36 58  1  0  0  0  0
 38 59  1  0  0  0  0
 39 60  1  0  0  0  0
 62 63  4  0  0  0  0
 63 64  1  0  0  0  0
 64 65  2  0  0  0  0
 65 66  4  0  0  0  0
 61 67  1  0  0  0  0
 63 67  4  0  0  0  0
 66 67  4  0  0  0  0
 66 68  4  0  0  0  0
 68 69  1  0  0  0  0
 69 70  4  0  0  0  0
 70 71  4  0  0  0  0
 71 72  4  0  0  0  0
 72 73  1  0  0  0  0
 73 74  2  0  0  0  0
 72 75  4  0  0  0  0
 69 76  4  0  0  0  0
 75 76  4  0  0  0  0
 68 77  4  0  0  0  0
 77 78  4  0  0  0  0
 78 79  2  0  0  0  0
 61 80  1  0  0  0  0
 77 80  4  0  0  0  0
 79 81  4  0  0  0  0
 80 81  4  0  0  0  0
 81 82  4  0  0  0  0
 82 83  4  0  0  0  0
 83 84  4  0  0  0  0
 84 85  2  0  0  0  0
 85 86  4  0  0  0  0
 61 87  1  0  0  0  0
 83 87  4  0  0  0  0
 86 87  4  0  0  0  0
 86 88  4  0  0  0  0
 88 89  1  0  0  0  0
 89 90  4  0  0  0  0
 90 91  4  0  0  0  0
 91 92  4  0  0  0  0
 92 93  1  0  0  0  0
 93 94  2  0  0  0  0
 92 95  4  0  0  0  0
 89 96  4  0  0  0  0
 95 96  4  0  0  0  0
 88 97  4  0  0  0  0
 97 98  4  0  0  0  0
 98 99  2  0  0  0  0
 62100  4  0  0  0  0
 99100  1  0  0  0  0
 61101  1  0  0  0  0
 97101  4  0  0  0  0
100101  4  0  0  0  0
 62102  1  0  0  0  0
 64103  1  0  0  0  0
 65104  1  0  0  0  0
 70105  1  0  0  0  0
 71106  1  0  0  0  0
 73107  1  0  0  0  0
 75108  1  0  0  0  0
 76109  1  0  0  0  0
 78110  1  0  0  0  0
 79111  1  0  0  0  0
 84112  1  0  0  0  0
 85113  1  0  0  0  0
 90114  1  0  0  0  0
 91115  1  0  0  0  0
 93116  1  0  0  0  0
 95117  1  0  0  0  0
 96118  1  0  0  0  0
 98119  1  0  0  0  0
 99120  1  0  0  0  0
 22121  4  0  0  0  0
121122  3  0  0  0  0
122123  4  0  0  0  0
123124  3  0  0  0  0
124125  4  0  0  0  0
125126  3  0  0  0  0
126127  4  0  0  0  0
127128  3  0  0  0  0
129130  3  0  0  0  0
130131  4  0  0  0  0
131132  3  0  0  0  0
132133  4  0  0  0  0
133134  3  0  0  0  0
134135  4  0  0  0  0
135136  3  0  0  0  0
137138  3  0  0  0  0
138139  4  0  0  0  0
139140  3  0  0  0  0
140141  4  0  0  0  0
141142  3  0  0  0  0
142143  4  0  0  0  0
 82144  4  0  0  0  0
143144  3  0  0  0  0
128146  4  0  0  0  0
146147  4  0  0  0  0
147148  4  0  0  0  0
148149  2  0  0  0  0
149150  4  0  0  0  0
145151  1  0  0  0  0
147151  4  0  0  0  0
150151  4  0  0  0  0
150152  4  0  0  0  0
152153  1  0  0  0  0
153154  4  0  0  0  0
154155  4  0  0  0  0
155156  4  0  0  0  0
156157  1  0  0  0  0
157158  2  0  0  0  0
156159  4  0  0  0  0
153160  4  0  0  0  0
159160  4  0  0  0  0
152161  4  0  0  0  0
161162  4  0  0  0  0
162163  2  0  0  0  0
145164  1  0  0  0  0
161164  4  0  0  0  0
163165  4  0  0  0  0
164165  4  0  0  0  0
129166  4  0  0  0  0
165166  4  0  0  0  0
166167  4  0  0  0  0
167168  4  0  0  0  0
168169  2  0  0  0  0
169170  4  0  0  0  0
145171  1  0  0  0  0
167171  4  0  0  0  0
170171  4  0  0  0  0
170172  4  0  0  0  0
172173  1  0  0  0  0
173174  4  0  0  0  0
174175  4  0  0  0  0
175176  4  0  0  0  0
176177  1  0  0  0  0
177178  2  0  0  0  0
176179  4  0  0  0  0
173180  4  0  0  0  0
179180  4  0  0  0  0
172181  4  0  0  0  0
181182  4  0  0  0  0
182183  2  0  0  0  0
146184  4  0  0  0  0
183184  4  0  0  0  0
145185  1  0  0  0  0
181185  4  0  0  0  0
184185  4  0  0  0  0
148186  1  0  0  0  0
149187  1  0  0  0  0
154188  1  0  0  0  0
155189  1  0  0  0  0
157190  1  0  0  0  0
159191  1  0  0  0  0
160192  1  0  0  0  0
162193  1  0  0  0  0
163194  1  0  0  0  0
168195  1  0  0  0  0
169196  1  0  0  0  0
174197  1  0  0  0  0
175198  1  0  0  0  0
177199  1  0  0  0  0
179200  1  0  0  0  0
180201  1  0  0  0  0
182202  1  0  0  0  0
183203  1  0  0  0  0
136205  4  0  0  0  0
205206  4  0  0  0  0
206207  4  0  0  0  0
207208  2  0  0  0  0
208209  4  0  0  0  0
204210  1  0  0  0  0
206210  4  0  0  0  0
209210  4  0  0  0  0
209211  4  0  0  0  0
211212  1  0  0  0  0
212213  4  0  0  0  0
213214  4  0  0  0  0
214215  4  0  0  0  0
215216  1  0  0  0  0
216217  2  0  0  0  0
215218  4  0  0  0  0
212219  4  0  0  0  0
218219  4  0  0  0  0
211220  4  0  0  0  0
220221  4  0  0  0  0
221222  2  0  0  0  0
204223  1  0  0  0  0
220223  4  0  0  0  0
222224  4  0  0  0  0
223224  4  0  0  0  0
137225  4  0  0  0  0
224225  4  0  0  0  0
225226  4  0  0  0  0
226227  4  0  0  0  0
227228  2  0  0  0  0
228229  4  0  0  0  0
204230  1  0  0  0  0
226230  4  0  0  0  0
229230  4  0  0  0  0
229231  4  0  0  0  0
231232  1  0  0  0  0
232233  4  0  0  0  0
233234  4  0  0  0  0
234235  4  0  0  0  0
235236  1  0  0  0  0
236237  2  0  0  0  0
235238  4  0  0  0  0
232239  4  0  0  0  0
238239  4  0  0  0  0
231240  4  0  0  0  0
240241  4  0  0  0  0
241242  2  0  0  0  0
205243  4  0  0  0  0
242243  4  0  0  0  0
204244  1  0  0  0  0
240244  4  0  0  0  0
243244  4  0  0  0  0
207245  1  0  0  0  0
208246  1  0  0  0  0
213247  1  0  0  0  0
214248  1  0  0  0  0
216249  1  0  0  0  0
218250  1  0  0  0  0
219251  1  0  0  0  0
221252  1  0  0  0  0
222253  1  0  0  0  0
227254  1  0  0  0  0
228255  1  0  0  0  0
233256  1  0  0  0  0
234257  1  0  0  0  0
236258  1  0  0  0  0
238259  1  0  0  0  0
239260  1  0  0  0  0
241261  1  0  0  0  0
242262  1  0  0  0  0
M  END
