 xtb: 6.5.1 (b24c23e)
          07302210473D

310349  0     0  0            999 V2000
   39.0719    0.1176   -0.0959 Ni  0  0  0  0  0  0  0  0  0  0  0  0
   35.6922    0.3764   -0.3219 C   0  0  0  0  0  0  0  0  0  0  0  0
   36.3392    1.1589    0.6116 C   0  0  0  0  0  0  0  0  0  0  0  0
   35.6569    2.0477    1.5023 C   0  0  0  0  0  0  0  0  0  0  0  0
   36.6042    2.6126    2.2865 C   0  0  0  0  0  0  0  0  0  0  0  0
   37.8660    2.0833    1.8603 C   0  0  0  0  0  0  0  0  0  0  0  0
   37.6922    1.1836    0.8384 N   0  0  0  0  0  0  0  0  0  0  0  0
   39.0831    2.4577    2.4105 C   0  0  0  0  0  0  0  0  0  0  0  0
   40.2967    1.9638    1.9580 C   0  0  0  0  0  0  0  0  0  0  0  0
   41.5632    2.4093    2.4543 C   0  0  0  0  0  0  0  0  0  0  0  0
   42.5135    1.7482    1.7521 C   0  0  0  0  0  0  0  0  0  0  0  0
   40.4707    1.0317    0.9593 N   0  0  0  0  0  0  0  0  0  0  0  0
   41.8253    0.8939    0.8364 C   0  0  0  0  0  0  0  0  0  0  0  0
   42.4867    0.0205   -0.0312 C   0  0  0  0  0  0  0  0  0  0  0  0
   41.8086   -0.8567   -0.8820 C   0  0  0  0  0  0  0  0  0  0  0  0
   42.4789   -1.8137   -1.7047 C   0  0  0  0  0  0  0  0  0  0  0  0
   41.5159   -2.5021   -2.3619 C   0  0  0  0  0  0  0  0  0  0  0  0
   40.2603   -1.9498   -1.9531 C   0  0  0  0  0  0  0  0  0  0  0  0
   39.0385   -2.3760   -2.4495 C   0  0  0  0  0  0  0  0  0  0  0  0
   39.0207   -3.4719   -3.4583 C   0  0  0  0  0  0  0  0  0  0  0  0
   39.4883   -3.2453   -4.7595 C   0  0  0  0  0  0  0  0  0  0  0  0
   39.9350   -1.9882   -5.0187 O   0  0  0  0  0  0  0  0  0  0  0  0
   40.4395   -1.6563   -6.2965 C   0  0  0  0  0  0  0  0  0  0  0  0
   39.4696   -4.2715   -5.7034 C   0  0  0  0  0  0  0  0  0  0  0  0
   38.9871   -5.5200   -5.3408 C   0  0  0  0  0  0  0  0  0  0  0  0
   38.5196   -5.7673   -4.0589 C   0  0  0  0  0  0  0  0  0  0  0  0
   38.5334   -4.7399   -3.1160 C   0  0  0  0  0  0  0  0  0  0  0  0
   38.1011   -4.8832   -1.8356 O   0  0  0  0  0  0  0  0  0  0  0  0
   37.6080   -6.1276   -1.3819 C   0  0  0  0  0  0  0  0  0  0  0  0
   37.8317   -1.8061   -2.0701 C   0  0  0  0  0  0  0  0  0  0  0  0
   36.5679   -2.1758   -2.6359 C   0  0  0  0  0  0  0  0  0  0  0  0
   35.6335   -1.3855   -2.0584 C   0  0  0  0  0  0  0  0  0  0  0  0
   36.3264   -0.5404   -1.1340 C   0  0  0  0  0  0  0  0  0  0  0  0
   37.6740   -0.7989   -1.1517 N   0  0  0  0  0  0  0  0  0  0  0  0
   40.4527   -0.9448   -1.0310 N   0  0  0  0  0  0  0  0  0  0  0  0
   39.0932    3.4578    3.5145 C   0  0  0  0  0  0  0  0  0  0  0  0
   39.4228    3.0665    4.8187 C   0  0  0  0  0  0  0  0  0  0  0  0
   39.7066    1.7485    4.9883 O   0  0  0  0  0  0  0  0  0  0  0  0
   40.0683    1.2522    6.2614 C   0  0  0  0  0  0  0  0  0  0  0  0
   39.4378    4.0026    5.8524 C   0  0  0  0  0  0  0  0  0  0  0  0
   39.1300    5.3260    5.5756 C   0  0  0  0  0  0  0  0  0  0  0  0
   38.8050    5.7368    4.2916 C   0  0  0  0  0  0  0  0  0  0  0  0
   38.7845    4.8001    3.2587 C   0  0  0  0  0  0  0  0  0  0  0  0
   38.4854    5.1047    1.9683 O   0  0  0  0  0  0  0  0  0  0  0  0
   38.1829    6.4347    1.5980 C   0  0  0  0  0  0  0  0  0  0  0  0
   34.6153    0.4688   -0.4041 H   0  0  0  0  0  0  0  0  0  0  0  0
   34.5888    2.1975    1.5160 H   0  0  0  0  0  0  0  0  0  0  0  0
   36.4766    3.3293    3.0814 H   0  0  0  0  0  0  0  0  0  0  0  0
   41.6946    3.1413    3.2345 H   0  0  0  0  0  0  0  0  0  0  0  0
   43.5861    1.8170    1.8366 H   0  0  0  0  0  0  0  0  0  0  0  0
   43.5490   -1.9362   -1.7531 H   0  0  0  0  0  0  0  0  0  0  0  0
   41.6326   -3.3091   -3.0665 H   0  0  0  0  0  0  0  0  0  0  0  0
   39.6747   -1.7744   -7.0737 H   0  0  0  0  0  0  0  0  0  0  0  0
   40.7365   -0.6073   -6.2423 H   0  0  0  0  0  0  0  0  0  0  0  0
   41.3146   -2.2655   -6.5534 H   0  0  0  0  0  0  0  0  0  0  0  0
   39.8254   -4.1065   -6.7116 H   0  0  0  0  0  0  0  0  0  0  0  0
   38.9747   -6.3186   -6.0744 H   0  0  0  0  0  0  0  0  0  0  0  0
   38.1496   -6.7514   -3.8042 H   0  0  0  0  0  0  0  0  0  0  0  0
   37.3348   -5.9826   -0.3351 H   0  0  0  0  0  0  0  0  0  0  0  0
   36.7200   -6.4378   -1.9460 H   0  0  0  0  0  0  0  0  0  0  0  0
   38.3724   -6.9111   -1.4496 H   0  0  0  0  0  0  0  0  0  0  0  0
   36.4311   -2.9400   -3.3838 H   0  0  0  0  0  0  0  0  0  0  0  0
   34.5680   -1.3640   -2.2249 H   0  0  0  0  0  0  0  0  0  0  0  0
   40.2555    0.1850    6.1292 H   0  0  0  0  0  0  0  0  0  0  0  0
   39.2602    1.3885    6.9904 H   0  0  0  0  0  0  0  0  0  0  0  0
   40.9796    1.7340    6.6360 H   0  0  0  0  0  0  0  0  0  0  0  0
   39.6867    3.7106    6.8639 H   0  0  0  0  0  0  0  0  0  0  0  0
   39.1443    6.0543    6.3790 H   0  0  0  0  0  0  0  0  0  0  0  0
   38.5719    6.7765    4.1045 H   0  0  0  0  0  0  0  0  0  0  0  0
   39.0244    7.1086    1.7991 H   0  0  0  0  0  0  0  0  0  0  0  0
   37.9887    6.4141    0.5241 H   0  0  0  0  0  0  0  0  0  0  0  0
   37.2905    6.8038    2.1181 H   0  0  0  0  0  0  0  0  0  0  0  0
   94.8078    0.0434   -0.1162 Ni  0  0  0  0  0  0  0  0  0  0  0  0
   98.1888    0.3139   -0.3197 C   0  0  0  0  0  0  0  0  0  0  0  0
   97.5497   -0.5019   -1.2298 C   0  0  0  0  0  0  0  0  0  0  0  0
   98.2398   -1.2547   -2.2329 C   0  0  0  0  0  0  0  0  0  0  0  0
   97.2961   -1.9349   -2.9243 C   0  0  0  0  0  0  0  0  0  0  0  0
   96.0294   -1.5837   -2.3534 C   0  0  0  0  0  0  0  0  0  0  0  0
   96.1962   -0.7140   -1.3047 N   0  0  0  0  0  0  0  0  0  0  0  0
   94.8144   -2.0557   -2.8280 C   0  0  0  0  0  0  0  0  0  0  0  0
   93.5969   -1.6848   -2.2789 C   0  0  0  0  0  0  0  0  0  0  0  0
   92.3340   -2.1006   -2.8085 C   0  0  0  0  0  0  0  0  0  0  0  0
   91.3789   -1.5294   -2.0371 C   0  0  0  0  0  0  0  0  0  0  0  0
   93.4163   -0.8610   -1.1903 N   0  0  0  0  0  0  0  0  0  0  0  0
   92.0609   -0.7731   -1.0348 C   0  0  0  0  0  0  0  0  0  0  0  0
   91.3938   -0.0836   -0.0185 C   0  0  0  0  0  0  0  0  0  0  0  0
   92.0667    0.6161    0.9872 C   0  0  0  0  0  0  0  0  0  0  0  0
   91.3923    1.2601    2.0699 C   0  0  0  0  0  0  0  0  0  0  0  0
   92.3496    1.8323    2.8376 C   0  0  0  0  0  0  0  0  0  0  0  0
   93.6055    1.5492    2.2121 C   0  0  0  0  0  0  0  0  0  0  0  0
   94.8202    2.0159    2.6891 C   0  0  0  0  0  0  0  0  0  0  0  0
   94.8269    2.8658    3.9124 C   0  0  0  0  0  0  0  0  0  0  0  0
   94.3199    4.1713    3.8696 C   0  0  0  0  0  0  0  0  0  0  0  0
   93.8478    4.5850    2.6643 O   0  0  0  0  0  0  0  0  0  0  0  0
   93.3040    5.8808    2.5139 C   0  0  0  0  0  0  0  0  0  0  0  0
   94.3277    4.9680    5.0141 C   0  0  0  0  0  0  0  0  0  0  0  0
   94.8384    4.4542    6.1965 C   0  0  0  0  0  0  0  0  0  0  0  0
   95.3448    3.1649    6.2625 C   0  0  0  0  0  0  0  0  0  0  0  0
   95.3419    2.3696    5.1170 C   0  0  0  0  0  0  0  0  0  0  0  0
   95.8113    1.0947    5.0808 O   0  0  0  0  0  0  0  0  0  0  0  0
   96.3361    0.4922    6.2466 C   0  0  0  0  0  0  0  0  0  0  0  0
   96.0287    1.7462    2.0631 C   0  0  0  0  0  0  0  0  0  0  0  0
   97.2856    2.2756    2.5035 C   0  0  0  0  0  0  0  0  0  0  0  0
   98.2272    1.8127    1.6488 C   0  0  0  0  0  0  0  0  0  0  0  0
   97.5447    0.9978    0.6900 C   0  0  0  0  0  0  0  0  0  0  0  0
   96.1964    0.9702    0.9440 N   0  0  0  0  0  0  0  0  0  0  0  0
   93.4199    0.7841    1.0818 N   0  0  0  0  0  0  0  0  0  0  0  0
   94.8126   -2.9820   -3.9947 C   0  0  0  0  0  0  0  0  0  0  0  0
   94.4770   -4.3315   -3.8243 C   0  0  0  0  0  0  0  0  0  0  0  0
   94.1795   -4.7125   -2.5544 O   0  0  0  0  0  0  0  0  0  0  0  0
   93.8156   -6.0494   -2.2747 C   0  0  0  0  0  0  0  0  0  0  0  0
   94.4702   -5.1988   -4.9164 C   0  0  0  0  0  0  0  0  0  0  0  0
   94.7926   -4.7111   -6.1738 C   0  0  0  0  0  0  0  0  0  0  0  0
   95.1244   -3.3785   -6.3666 C   0  0  0  0  0  0  0  0  0  0  0  0
   95.1366   -2.5120   -5.2740 C   0  0  0  0  0  0  0  0  0  0  0  0
   95.4419   -1.1904   -5.3609 O   0  0  0  0  0  0  0  0  0  0  0  0
   95.7556   -0.6087   -6.6101 C   0  0  0  0  0  0  0  0  0  0  0  0
   99.2663    0.4084   -0.3907 H   0  0  0  0  0  0  0  0  0  0  0  0
   99.3099   -1.2540   -2.3685 H   0  0  0  0  0  0  0  0  0  0  0  0
   97.4291   -2.6121   -3.7523 H   0  0  0  0  0  0  0  0  0  0  0  0
   92.2080   -2.7426   -3.6650 H   0  0  0  0  0  0  0  0  0  0  0  0
   90.3069   -1.6067   -2.1217 H   0  0  0  0  0  0  0  0  0  0  0  0
   90.3236    1.2586    2.2126 H   0  0  0  0  0  0  0  0  0  0  0  0
   92.2290    2.4014    3.7448 H   0  0  0  0  0  0  0  0  0  0  0  0
   94.0492    6.6567    2.7274 H   0  0  0  0  0  0  0  0  0  0  0  0
   92.9929    5.9601    1.4706 H   0  0  0  0  0  0  0  0  0  0  0  0
   92.4315    6.0278    3.1620 H   0  0  0  0  0  0  0  0  0  0  0  0
   93.9417    5.9782    4.9912 H   0  0  0  0  0  0  0  0  0  0  0  0
   94.8424    5.0730    7.0870 H   0  0  0  0  0  0  0  0  0  0  0  0
   95.7362    2.7904    7.1989 H   0  0  0  0  0  0  0  0  0  0  0  0
   96.6355   -0.5172    5.9583 H   0  0  0  0  0  0  0  0  0  0  0  0
   97.2131    1.0351    6.6197 H   0  0  0  0  0  0  0  0  0  0  0  0
   95.5825    0.4312    7.0411 H   0  0  0  0  0  0  0  0  0  0  0  0
   97.4139    2.9206    3.3576 H   0  0  0  0  0  0  0  0  0  0  0  0
   99.2909    1.9912    1.6515 H   0  0  0  0  0  0  0  0  0  0  0  0
   93.6203   -6.0926   -1.2016 H   0  0  0  0  0  0  0  0  0  0  0  0
   94.6257   -6.7465   -2.5216 H   0  0  0  0  0  0  0  0  0  0  0  0
   92.9085   -6.3406   -2.8179 H   0  0  0  0  0  0  0  0  0  0  0  0
   94.2165   -6.2434   -4.7957 H   0  0  0  0  0  0  0  0  0  0  0  0
   94.7846   -5.3850   -7.0234 H   0  0  0  0  0  0  0  0  0  0  0  0
   95.3693   -3.0254   -7.3594 H   0  0  0  0  0  0  0  0  0  0  0  0
   94.9194   -0.6955   -7.3144 H   0  0  0  0  0  0  0  0  0  0  0  0
   95.9503    0.4472   -6.4131 H   0  0  0  0  0  0  0  0  0  0  0  0
   96.6505   -1.0633   -7.0522 H   0  0  0  0  0  0  0  0  0  0  0  0
   43.8916    0.0029   -0.0270 C   0  0  0  0  0  0  0  0  0  0  0  0
   45.1157   -0.0081   -0.0272 C   0  0  0  0  0  0  0  0  0  0  0  0
   46.4591   -0.0186   -0.0255 C   0  0  0  0  0  0  0  0  0  0  0  0
   47.6893   -0.0278   -0.0268 C   0  0  0  0  0  0  0  0  0  0  0  0
   49.0279   -0.0338   -0.0253 C   0  0  0  0  0  0  0  0  0  0  0  0
   50.2584   -0.0382   -0.0256 C   0  0  0  0  0  0  0  0  0  0  0  0
   51.6016   -0.0387   -0.0256 C   0  0  0  0  0  0  0  0  0  0  0  0
   52.8259   -0.0365   -0.0273 C   0  0  0  0  0  0  0  0  0  0  0  0
   62.4758   -0.0638   -0.0482 C   0  0  0  0  0  0  0  0  0  0  0  0
   63.7004   -0.0712   -0.0494 C   0  0  0  0  0  0  0  0  0  0  0  0
   65.0431   -0.0774   -0.0492 C   0  0  0  0  0  0  0  0  0  0  0  0
   66.2738   -0.0777   -0.0490 C   0  0  0  0  0  0  0  0  0  0  0  0
   67.6118   -0.0752   -0.0448 C   0  0  0  0  0  0  0  0  0  0  0  0
   68.8425   -0.0715   -0.0400 C   0  0  0  0  0  0  0  0  0  0  0  0
   70.1852   -0.0644   -0.0342 C   0  0  0  0  0  0  0  0  0  0  0  0
   71.4099   -0.0562   -0.0273 C   0  0  0  0  0  0  0  0  0  0  0  0
   81.0556   -0.1145    0.0262 C   0  0  0  0  0  0  0  0  0  0  0  0
   82.2800   -0.1302    0.0344 C   0  0  0  0  0  0  0  0  0  0  0  0
   83.6229   -0.1407    0.0393 C   0  0  0  0  0  0  0  0  0  0  0  0
   84.8535   -0.1432    0.0408 C   0  0  0  0  0  0  0  0  0  0  0  0
   86.1918   -0.1409    0.0367 C   0  0  0  0  0  0  0  0  0  0  0  0
   87.4223   -0.1336    0.0286 C   0  0  0  0  0  0  0  0  0  0  0  0
   88.7654   -0.1225    0.0179 C   0  0  0  0  0  0  0  0  0  0  0  0
   89.9896   -0.1096    0.0036 C   0  0  0  0  0  0  0  0  0  0  0  0
   57.6512   -0.0219   -0.0374 Ni  0  0  0  0  0  0  0  0  0  0  0  0
   54.2303   -0.0309   -0.0299 C   0  0  0  0  0  0  0  0  0  0  0  0
   54.9050   -0.1481    1.1888 C   0  0  0  0  0  0  0  0  0  0  0  0
   54.2327   -0.2937    2.4409 C   0  0  0  0  0  0  0  0  0  0  0  0
   55.1907   -0.2839    3.3986 C   0  0  0  0  0  0  0  0  0  0  0  0
   56.4443   -0.1291    2.7270 C   0  0  0  0  0  0  0  0  0  0  0  0
   56.2588   -0.0745    1.3640 N   0  0  0  0  0  0  0  0  0  0  0  0
   57.6588   -0.0111    3.3856 C   0  0  0  0  0  0  0  0  0  0  0  0
   58.8710    0.0934    2.7212 C   0  0  0  0  0  0  0  0  0  0  0  0
   60.1293    0.2384    3.3861 C   0  0  0  0  0  0  0  0  0  0  0  0
   61.0836    0.2221    2.4249 C   0  0  0  0  0  0  0  0  0  0  0  0
   59.0505    0.0227    1.3579 N   0  0  0  0  0  0  0  0  0  0  0  0
   60.4042    0.0757    1.1768 C   0  0  0  0  0  0  0  0  0  0  0  0
   61.0721   -0.0506   -0.0451 C   0  0  0  0  0  0  0  0  0  0  0  0
   60.3964   -0.1564   -1.2645 C   0  0  0  0  0  0  0  0  0  0  0  0
   61.0677   -0.2986   -2.5174 C   0  0  0  0  0  0  0  0  0  0  0  0
   60.1099   -0.2762   -3.4750 C   0  0  0  0  0  0  0  0  0  0  0  0
   58.8573   -0.1170   -2.8027 C   0  0  0  0  0  0  0  0  0  0  0  0
   57.6438    0.0137   -3.4605 C   0  0  0  0  0  0  0  0  0  0  0  0
   57.6416    0.0331   -4.9496 C   0  0  0  0  0  0  0  0  0  0  0  0
   57.1164   -1.0474   -5.6707 C   0  0  0  0  0  0  0  0  0  0  0  0
   56.6352   -2.0782   -4.9277 O   0  0  0  0  0  0  0  0  0  0  0  0
   56.0813   -3.2170   -5.5555 C   0  0  0  0  0  0  0  0  0  0  0  0
   57.1179   -1.0305   -7.0651 C   0  0  0  0  0  0  0  0  0  0  0  0
   57.6394    0.0683   -7.7311 C   0  0  0  0  0  0  0  0  0  0  0  0
   58.1618    1.1499   -7.0382 C   0  0  0  0  0  0  0  0  0  0  0  0
   58.1658    1.1315   -5.6438 C   0  0  0  0  0  0  0  0  0  0  0  0
   58.6485    2.1430   -4.8759 O   0  0  0  0  0  0  0  0  0  0  0  0
   59.1995    3.2981   -5.4758 C   0  0  0  0  0  0  0  0  0  0  0  0
   56.4321    0.1214   -2.7949 C   0  0  0  0  0  0  0  0  0  0  0  0
   55.1746    0.2791   -3.4585 C   0  0  0  0  0  0  0  0  0  0  0  0
   54.2203    0.2600   -2.4975 C   0  0  0  0  0  0  0  0  0  0  0  0
   54.8988    0.1000   -1.2506 C   0  0  0  0  0  0  0  0  0  0  0  0
   56.2524    0.0412   -1.4323 N   0  0  0  0  0  0  0  0  0  0  0  0
   59.0433   -0.0726   -1.4392 N   0  0  0  0  0  0  0  0  0  0  0  0
   57.6604    0.0011    4.8749 C   0  0  0  0  0  0  0  0  0  0  0  0
   58.1697   -1.0894    5.5922 C   0  0  0  0  0  0  0  0  0  0  0  0
   58.6363   -2.1244    4.8459 O   0  0  0  0  0  0  0  0  0  0  0  0
   59.1685   -3.2753    5.4703 C   0  0  0  0  0  0  0  0  0  0  0  0
   58.1680   -1.0770    6.9867 C   0  0  0  0  0  0  0  0  0  0  0  0
   57.6624    0.0270    7.6563 C   0  0  0  0  0  0  0  0  0  0  0  0
   57.1555    1.1183    6.9671 C   0  0  0  0  0  0  0  0  0  0  0  0
   57.1516    1.1045    5.5727 C   0  0  0  0  0  0  0  0  0  0  0  0
   56.6834    2.1249    4.8076 O   0  0  0  0  0  0  0  0  0  0  0  0
   56.1487    3.2861    5.4107 C   0  0  0  0  0  0  0  0  0  0  0  0
   53.1646   -0.3860    2.5550 H   0  0  0  0  0  0  0  0  0  0  0  0
   55.0718   -0.3695    4.4664 H   0  0  0  0  0  0  0  0  0  0  0  0
   60.2538    0.3336    4.4525 H   0  0  0  0  0  0  0  0  0  0  0  0
   62.1534    0.2995    2.5340 H   0  0  0  0  0  0  0  0  0  0  0  0
   62.1352   -0.3974   -2.6320 H   0  0  0  0  0  0  0  0  0  0  0  0
   60.2285   -0.3559   -4.5433 H   0  0  0  0  0  0  0  0  0  0  0  0
   55.2086   -2.9546   -6.1657 H   0  0  0  0  0  0  0  0  0  0  0  0
   55.7682   -3.8848   -4.7507 H   0  0  0  0  0  0  0  0  0  0  0  0
   56.8210   -3.7300   -6.1820 H   0  0  0  0  0  0  0  0  0  0  0  0
   56.7188   -1.8611   -7.6317 H   0  0  0  0  0  0  0  0  0  0  0  0
   57.6386    0.0820   -8.8155 H   0  0  0  0  0  0  0  0  0  0  0  0
   58.5601    1.9945   -7.5844 H   0  0  0  0  0  0  0  0  0  0  0  0
   59.5151    3.9450   -4.6552 H   0  0  0  0  0  0  0  0  0  0  0  0
   58.4572    3.8267   -6.0862 H   0  0  0  0  0  0  0  0  0  0  0  0
   60.0701    3.0523   -6.0959 H   0  0  0  0  0  0  0  0  0  0  0  0
   55.0506    0.3838   -4.5240 H   0  0  0  0  0  0  0  0  0  0  0  0
   53.1509    0.3439   -2.6060 H   0  0  0  0  0  0  0  0  0  0  0  0
   58.4181   -3.7778    6.0926 H   0  0  0  0  0  0  0  0  0  0  0  0
   59.4722   -3.9451    4.6637 H   0  0  0  0  0  0  0  0  0  0  0  0
   60.0438   -3.0308    6.0842 H   0  0  0  0  0  0  0  0  0  0  0  0
   58.5551   -1.9150    7.5508 H   0  0  0  0  0  0  0  0  0  0  0  0
   57.6635    0.0372    8.7408 H   0  0  0  0  0  0  0  0  0  0  0  0
   56.7691    1.9666    7.5159 H   0  0  0  0  0  0  0  0  0  0  0  0
   56.8976    3.8009    6.0246 H   0  0  0  0  0  0  0  0  0  0  0  0
   55.2732    3.0511    6.0279 H   0  0  0  0  0  0  0  0  0  0  0  0
   55.8449    3.9407    4.5918 H   0  0  0  0  0  0  0  0  0  0  0  0
   76.2330   -0.0349    0.0001 Ni  0  0  0  0  0  0  0  0  0  0  0  0
   72.8135   -0.0445   -0.0189 C   0  0  0  0  0  0  0  0  0  0  0  0
   73.4797   -0.1708    1.2041 C   0  0  0  0  0  0  0  0  0  0  0  0
   72.7997   -0.3256    2.4508 C   0  0  0  0  0  0  0  0  0  0  0  0
   73.7501   -0.3043    3.4160 C   0  0  0  0  0  0  0  0  0  0  0  0
   75.0070   -0.1348    2.7542 C   0  0  0  0  0  0  0  0  0  0  0  0
   74.8311   -0.0843    1.3898 N   0  0  0  0  0  0  0  0  0  0  0  0
   76.2147    0.0052    3.4210 C   0  0  0  0  0  0  0  0  0  0  0  0
   77.4308    0.1166    2.7640 C   0  0  0  0  0  0  0  0  0  0  0  0
   78.6834    0.2815    3.4349 C   0  0  0  0  0  0  0  0  0  0  0  0
   79.6451    0.2480    2.4814 C   0  0  0  0  0  0  0  0  0  0  0  0
   77.6208    0.0218    1.4037 N   0  0  0  0  0  0  0  0  0  0  0  0
   78.9758    0.0723    1.2317 C   0  0  0  0  0  0  0  0  0  0  0  0
   79.6519   -0.0913    0.0186 C   0  0  0  0  0  0  0  0  0  0  0  0
   78.9836   -0.2192   -1.2029 C   0  0  0  0  0  0  0  0  0  0  0  0
   79.6607   -0.3928   -2.4487 C   0  0  0  0  0  0  0  0  0  0  0  0
   78.7107   -0.3610   -3.4140 C   0  0  0  0  0  0  0  0  0  0  0  0
   77.4570   -0.1661   -2.7533 C   0  0  0  0  0  0  0  0  0  0  0  0
   76.2521   -0.0056   -3.4210 C   0  0  0  0  0  0  0  0  0  0  0  0
   76.2631    0.0183   -4.9099 C   0  0  0  0  0  0  0  0  0  0  0  0
   75.7151   -1.0446   -5.6401 C   0  0  0  0  0  0  0  0  0  0  0  0
   75.2002   -2.0654   -4.9061 O   0  0  0  0  0  0  0  0  0  0  0  0
   74.6237   -3.1874   -5.5437 C   0  0  0  0  0  0  0  0  0  0  0  0
   75.7289   -1.0218   -7.0344 C   0  0  0  0  0  0  0  0  0  0  0  0
   76.2855    0.0652   -7.6912 C   0  0  0  0  0  0  0  0  0  0  0  0
   76.8315    1.1292   -6.9893 C   0  0  0  0  0  0  0  0  0  0  0  0
   76.8232    1.1047   -5.5950 C   0  0  0  0  0  0  0  0  0  0  0  0
   77.3267    2.0995   -4.8187 O   0  0  0  0  0  0  0  0  0  0  0  0
   77.9150    3.2412   -5.4087 C   0  0  0  0  0  0  0  0  0  0  0  0
   75.0379    0.1266   -2.7646 C   0  0  0  0  0  0  0  0  0  0  0  0
   73.7877    0.3079   -3.4359 C   0  0  0  0  0  0  0  0  0  0  0  0
   72.8253    0.2865   -2.4827 C   0  0  0  0  0  0  0  0  0  0  0  0
   73.4920    0.1038   -1.2326 C   0  0  0  0  0  0  0  0  0  0  0  0
   74.8462    0.0360   -1.4041 N   0  0  0  0  0  0  0  0  0  0  0  0
   77.6335   -0.1125   -1.3891 N   0  0  0  0  0  0  0  0  0  0  0  0
   76.2050    0.0280    4.9099 C   0  0  0  0  0  0  0  0  0  0  0  0
   76.7277   -1.0491    5.6379 C   0  0  0  0  0  0  0  0  0  0  0  0
   77.2190   -2.0798    4.9014 O   0  0  0  0  0  0  0  0  0  0  0  0
   77.7672   -3.2173    5.5365 C   0  0  0  0  0  0  0  0  0  0  0  0
   76.7135   -1.0292    7.0321 C   0  0  0  0  0  0  0  0  0  0  0  0
   76.1820    0.0690    7.6911 C   0  0  0  0  0  0  0  0  0  0  0  0
   75.6617    1.1472    6.9914 C   0  0  0  0  0  0  0  0  0  0  0  0
   75.6703    1.1258    5.5970 C   0  0  0  0  0  0  0  0  0  0  0  0
   75.1905    2.1336    4.8224 O   0  0  0  0  0  0  0  0  0  0  0  0
   74.6285    3.2874    5.4146 C   0  0  0  0  0  0  0  0  0  0  0  0
   71.7318   -0.4295    2.5568 H   0  0  0  0  0  0  0  0  0  0  0  0
   73.6239   -0.3908    4.4829 H   0  0  0  0  0  0  0  0  0  0  0  0
   78.7995    0.3990    4.5000 H   0  0  0  0  0  0  0  0  0  0  0  0
   80.7139    0.3307    2.5970 H   0  0  0  0  0  0  0  0  0  0  0  0
   80.7267   -0.5155   -2.5540 H   0  0  0  0  0  0  0  0  0  0  0  0
   78.8353   -0.4560   -4.4803 H   0  0  0  0  0  0  0  0  0  0  0  0
   73.7643   -2.9006   -6.1617 H   0  0  0  0  0  0  0  0  0  0  0  0
   74.2855   -3.8498   -4.7448 H   0  0  0  0  0  0  0  0  0  0  0  0
   75.3565   -3.7169   -6.1647 H   0  0  0  0  0  0  0  0  0  0  0  0
   75.3121   -1.8388   -7.6080 H   0  0  0  0  0  0  0  0  0  0  0  0
   76.2939    0.0836   -8.7755 H   0  0  0  0  0  0  0  0  0  0  0  0
   77.2575    1.9647   -7.5283 H   0  0  0  0  0  0  0  0  0  0  0  0
   78.2394    3.8766   -4.5826 H   0  0  0  0  0  0  0  0  0  0  0  0
   77.1938    3.7917   -6.0248 H   0  0  0  0  0  0  0  0  0  0  0  0
   78.7850    2.9738   -6.0206 H   0  0  0  0  0  0  0  0  0  0  0  0
   73.6732    0.4267   -4.5010 H   0  0  0  0  0  0  0  0  0  0  0  0
   71.7577    0.3830   -2.5986 H   0  0  0  0  0  0  0  0  0  0  0  0
   77.0214   -3.7297    6.1562 H   0  0  0  0  0  0  0  0  0  0  0  0
   78.0889   -3.8861    4.7361 H   0  0  0  0  0  0  0  0  0  0  0  0
   78.6333   -2.9534    6.1553 H   0  0  0  0  0  0  0  0  0  0  0  0
   77.1106   -1.8571    7.6042 H   0  0  0  0  0  0  0  0  0  0  0  0
   76.1730    0.0850    8.7754 H   0  0  0  0  0  0  0  0  0  0  0  0
   75.2551    1.9913    7.5321 H   0  0  0  0  0  0  0  0  0  0  0  0
   75.3622    3.8202    6.0315 H   0  0  0  0  0  0  0  0  0  0  0  0
   73.7527    3.0389    6.0261 H   0  0  0  0  0  0  0  0  0  0  0  0
   74.3186    3.9315    4.5895 H   0  0  0  0  0  0  0  0  0  0  0  0
  2  3  4  0  0  0  0
  3  4  4  0  0  0  0
  4  5  2  0  0  0  0
  5  6  4  0  0  0  0
  1  7  1  0  0  0  0
  3  7  4  0  0  0  0
  6  7  4  0  0  0  0
  6  8  4  0  0  0  0
  8  9  4  0  0  0  0
  9 10  4  0  0  0  0
 10 11  2  0  0  0  0
  1 12  1  0  0  0  0
  9 12  4  0  0  0  0
 11 13  4  0  0  0  0
 12 13  4  0  0  0  0
 13 14  4  0  0  0  0
 14 15  4  0  0  0  0
 15 16  4  0  0  0  0
 16 17  2  0  0  0  0
 17 18  4  0  0  0  0
 18 19  4  0  0  0  0
 19 20  1  0  0  0  0
 20 21  4  0  0  0  0
 21 22  1  0  0  0  0
 22 23  1  0  0  0  0
 21 24  4  0  0  0  0
 24 25  4  0  0  0  0
 25 26  4  0  0  0  0
 20 27  4  0  0  0  0
 26 27  4  0  0  0  0
 27 28  1  0  0  0  0
 28 29  1  0  0  0  0
 19 30  4  0  0  0  0
 30 31  4  0  0  0  0
 31 32  2  0  0  0  0
  2 33  4  0  0  0  0
 32 33  4  0  0  0  0
  1 34  1  0  0  0  0
 30 34  4  0  0  0  0
 33 34  4  0  0  0  0
  1 35  1  0  0  0  0
 15 35  4  0  0  0  0
 18 35  4  0  0  0  0
  8 36  1  0  0  0  0
 36 37  4  0  0  0  0
 37 38  1  0  0  0  0
 38 39  1  0  0  0  0
 37 40  4  0  0  0  0
 40 41  4  0  0  0  0
 41 42  4  0  0  0  0
 36 43  4  0  0  0  0
 42 43  4  0  0  0  0
 43 44  1  0  0  0  0
 44 45  1  0  0  0  0
  2 46  1  0  0  0  0
  4 47  1  0  0  0  0
  5 48  1  0  0  0  0
 10 49  1  0  0  0  0
 11 50  1  0  0  0  0
 16 51  1  0  0  0  0
 17 52  1  0  0  0  0
 23 53  1  0  0  0  0
 23 54  1  0  0  0  0
 23 55  1  0  0  0  0
 24 56  1  0  0  0  0
 25 57  1  0  0  0  0
 26 58  1  0  0  0  0
 29 59  1  0  0  0  0
 29 60  1  0  0  0  0
 29 61  1  0  0  0  0
 31 62  1  0  0  0  0
 32 63  1  0  0  0  0
 39 64  1  0  0  0  0
 39 65  1  0  0  0  0
 39 66  1  0  0  0  0
 40 67  1  0  0  0  0
 41 68  1  0  0  0  0
 42 69  1  0  0  0  0
 45 70  1  0  0  0  0
 45 71  1  0  0  0  0
 45 72  1  0  0  0  0
 74 75  4  0  0  0  0
 75 76  4  0  0  0  0
 76 77  2  0  0  0  0
 77 78  4  0  0  0  0
 73 79  1  0  0  0  0
 75 79  4  0  0  0  0
 78 79  4  0  0  0  0
 78 80  4  0  0  0  0
 80 81  4  0  0  0  0
 81 82  4  0  0  0  0
 82 83  2  0  0  0  0
 73 84  1  0  0  0  0
 81 84  4  0  0  0  0
 83 85  4  0  0  0  0
 84 85  4  0  0  0  0
 85 86  4  0  0  0  0
 86 87  4  0  0  0  0
 87 88  4  0  0  0  0
 88 89  2  0  0  0  0
 89 90  4  0  0  0  0
 90 91  4  0  0  0  0
 91 92  1  0  0  0  0
 92 93  4  0  0  0  0
 93 94  1  0  0  0  0
 94 95  1  0  0  0  0
 93 96  4  0  0  0  0
 96 97  4  0  0  0  0
 97 98  4  0  0  0  0
 92 99  4  0  0  0  0
 98 99  4  0  0  0  0
 99100  1  0  0  0  0
100101  1  0  0  0  0
 91102  4  0  0  0  0
102103  4  0  0  0  0
103104  2  0  0  0  0
 74105  4  0  0  0  0
104105  4  0  0  0  0
 73106  1  0  0  0  0
102106  4  0  0  0  0
105106  4  0  0  0  0
 73107  1  0  0  0  0
 87107  4  0  0  0  0
 90107  4  0  0  0  0
 80108  1  0  0  0  0
108109  4  0  0  0  0
109110  1  0  0  0  0
110111  1  0  0  0  0
109112  4  0  0  0  0
112113  4  0  0  0  0
113114  4  0  0  0  0
108115  4  0  0  0  0
114115  4  0  0  0  0
115116  1  0  0  0  0
116117  1  0  0  0  0
 74118  1  0  0  0  0
 76119  1  0  0  0  0
 77120  1  0  0  0  0
 82121  1  0  0  0  0
 83122  1  0  0  0  0
 88123  1  0  0  0  0
 89124  1  0  0  0  0
 95125  1  0  0  0  0
 95126  1  0  0  0  0
 95127  1  0  0  0  0
 96128  1  0  0  0  0
 97129  1  0  0  0  0
 98130  1  0  0  0  0
101131  1  0  0  0  0
101132  1  0  0  0  0
101133  1  0  0  0  0
103134  1  0  0  0  0
104135  1  0  0  0  0
111136  1  0  0  0  0
111137  1  0  0  0  0
111138  1  0  0  0  0
112139  1  0  0  0  0
113140  1  0  0  0  0
114141  1  0  0  0  0
117142  1  0  0  0  0
117143  1  0  0  0  0
117144  1  0  0  0  0
 14145  4  0  0  0  0
145146  3  0  0  0  0
146147  4  0  0  0  0
147148  3  0  0  0  0
148149  4  0  0  0  0
149150  3  0  0  0  0
150151  4  0  0  0  0
151152  3  0  0  0  0
153154  3  0  0  0  0
154155  4  0  0  0  0
155156  3  0  0  0  0
156157  4  0  0  0  0
157158  3  0  0  0  0
158159  4  0  0  0  0
159160  3  0  0  0  0
161162  3  0  0  0  0
162163  4  0  0  0  0
163164  3  0  0  0  0
164165  4  0  0  0  0
165166  3  0  0  0  0
166167  4  0  0  0  0
 86168  4  0  0  0  0
167168  3  0  0  0  0
152170  4  0  0  0  0
170171  4  0  0  0  0
171172  4  0  0  0  0
172173  2  0  0  0  0
173174  4  0  0  0  0
169175  1  0  0  0  0
171175  4  0  0  0  0
174175  4  0  0  0  0
174176  4  0  0  0  0
176177  4  0  0  0  0
177178  4  0  0  0  0
178179  2  0  0  0  0
169180  1  0  0  0  0
177180  4  0  0  0  0
179181  4  0  0  0  0
180181  4  0  0  0  0
153182  4  0  0  0  0
181182  4  0  0  0  0
182183  4  0  0  0  0
183184  4  0  0  0  0
184185  2  0  0  0  0
185186  4  0  0  0  0
186187  4  0  0  0  0
187188  1  0  0  0  0
188189  4  0  0  0  0
189190  1  0  0  0  0
190191  1  0  0  0  0
189192  4  0  0  0  0
192193  4  0  0  0  0
193194  4  0  0  0  0
188195  4  0  0  0  0
194195  4  0  0  0  0
195196  1  0  0  0  0
196197  1  0  0  0  0
187198  4  0  0  0  0
198199  4  0  0  0  0
199200  2  0  0  0  0
170201  4  0  0  0  0
200201  4  0  0  0  0
169202  1  0  0  0  0
198202  4  0  0  0  0
201202  4  0  0  0  0
169203  1  0  0  0  0
183203  4  0  0  0  0
186203  4  0  0  0  0
176204  1  0  0  0  0
204205  4  0  0  0  0
205206  1  0  0  0  0
206207  1  0  0  0  0
205208  4  0  0  0  0
208209  4  0  0  0  0
209210  4  0  0  0  0
204211  4  0  0  0  0
210211  4  0  0  0  0
211212  1  0  0  0  0
212213  1  0  0  0  0
172214  1  0  0  0  0
173215  1  0  0  0  0
178216  1  0  0  0  0
179217  1  0  0  0  0
184218  1  0  0  0  0
185219  1  0  0  0  0
191220  1  0  0  0  0
191221  1  0  0  0  0
191222  1  0  0  0  0
192223  1  0  0  0  0
193224  1  0  0  0  0
194225  1  0  0  0  0
197226  1  0  0  0  0
197227  1  0  0  0  0
197228  1  0  0  0  0
199229  1  0  0  0  0
200230  1  0  0  0  0
207231  1  0  0  0  0
207232  1  0  0  0  0
207233  1  0  0  0  0
208234  1  0  0  0  0
209235  1  0  0  0  0
210236  1  0  0  0  0
213237  1  0  0  0  0
213238  1  0  0  0  0
213239  1  0  0  0  0
160241  4  0  0  0  0
241242  4  0  0  0  0
242243  4  0  0  0  0
243244  2  0  0  0  0
244245  4  0  0  0  0
240246  1  0  0  0  0
242246  4  0  0  0  0
245246  4  0  0  0  0
245247  4  0  0  0  0
247248  4  0  0  0  0
248249  4  0  0  0  0
249250  2  0  0  0  0
240251  1  0  0  0  0
248251  4  0  0  0  0
250252  4  0  0  0  0
251252  4  0  0  0  0
161253  4  0  0  0  0
252253  4  0  0  0  0
253254  4  0  0  0  0
254255  4  0  0  0  0
255256  2  0  0  0  0
256257  4  0  0  0  0
257258  4  0  0  0  0
258259  1  0  0  0  0
259260  4  0  0  0  0
260261  1  0  0  0  0
261262  1  0  0  0  0
260263  4  0  0  0  0
263264  4  0  0  0  0
264265  4  0  0  0  0
259266  4  0  0  0  0
265266  4  0  0  0  0
266267  1  0  0  0  0
267268  1  0  0  0  0
258269  4  0  0  0  0
269270  4  0  0  0  0
270271  2  0  0  0  0
241272  4  0  0  0  0
271272  4  0  0  0  0
240273  1  0  0  0  0
269273  4  0  0  0  0
272273  4  0  0  0  0
240274  1  0  0  0  0
254274  4  0  0  0  0
257274  4  0  0  0  0
247275  1  0  0  0  0
275276  4  0  0  0  0
276277  1  0  0  0  0
277278  1  0  0  0  0
276279  4  0  0  0  0
279280  4  0  0  0  0
280281  4  0  0  0  0
275282  4  0  0  0  0
281282  4  0  0  0  0
282283  1  0  0  0  0
283284  1  0  0  0  0
243285  1  0  0  0  0
244286  1  0  0  0  0
249287  1  0  0  0  0
250288  1  0  0  0  0
255289  1  0  0  0  0
256290  1  0  0  0  0
262291  1  0  0  0  0
262292  1  0  0  0  0
262293  1  0  0  0  0
263294  1  0  0  0  0
264295  1  0  0  0  0
265296  1  0  0  0  0
268297  1  0  0  0  0
268298  1  0  0  0  0
268299  1  0  0  0  0
270300  1  0  0  0  0
271301  1  0  0  0  0
278302  1  0  0  0  0
278303  1  0  0  0  0
278304  1  0  0  0  0
279305  1  0  0  0  0
280306  1  0  0  0  0
281307  1  0  0  0  0
284308  1  0  0  0  0
284309  1  0  0  0  0
284310  1  0  0  0  0
M  END
