 xtb: 6.5.1 (b24c23e)
          07292221593D

258297  0     0  0            999 V2000
   49.9740    0.0069   -0.0683 Fe  0  0  0  0  0  0  0  0  0  0  0  0
   46.5840    0.0422   -0.1372 C   0  0  0  0  0  0  0  0  0  0  0  0
   47.2400    1.2548   -0.1733 C   0  0  0  0  0  0  0  0  0  0  0  0
   46.5635    2.5159   -0.2200 C   0  0  0  0  0  0  0  0  0  0  0  0
   47.5204    3.4710   -0.1593 C   0  0  0  0  0  0  0  0  0  0  0  0
   48.7818    2.7913   -0.0861 C   0  0  0  0  0  0  0  0  0  0  0  0
   48.5967    1.4352   -0.1044 N   0  0  0  0  0  0  0  0  0  0  0  0
   50.0030    3.4399    0.0651 C   0  0  0  0  0  0  0  0  0  0  0  0
   50.0130    4.9227    0.1333 C   0  0  0  0  0  0  0  0  0  0  0  0
   49.6165    5.6775   -0.9703 C   0  0  0  0  0  0  0  0  0  0  0  0
   49.6287    7.0660   -0.9045 C   0  0  0  0  0  0  0  0  0  0  0  0
   49.2530    7.8104   -1.9728 O   0  0  0  0  0  0  0  0  0  0  0  0
   50.0300    7.7030    0.2710 C   0  0  0  0  0  0  0  0  0  0  0  0
   50.0273    9.0726    0.3079 O   0  0  0  0  0  0  0  0  0  0  0  0
   50.4220    6.9480    1.3736 C   0  0  0  0  0  0  0  0  0  0  0  0
   50.7989    7.6437    2.4921 O   0  0  0  0  0  0  0  0  0  0  0  0
   50.4195    5.5602    1.3082 C   0  0  0  0  0  0  0  0  0  0  0  0
   51.2107    2.7637    0.1579 C   0  0  0  0  0  0  0  0  0  0  0  0
   52.4813    3.4158    0.2768 C   0  0  0  0  0  0  0  0  0  0  0  0
   53.4240    2.4436    0.2525 C   0  0  0  0  0  0  0  0  0  0  0  0
   51.3809    1.4020    0.0670 N   0  0  0  0  0  0  0  0  0  0  0  0
   52.7282    1.2029    0.1113 C   0  0  0  0  0  0  0  0  0  0  0  0
   53.3846   -0.0267   -0.0251 C   0  0  0  0  0  0  0  0  0  0  0  0
   52.7069   -1.2437   -0.1666 C   0  0  0  0  0  0  0  0  0  0  0  0
   53.3794   -2.4952   -0.3256 C   0  0  0  0  0  0  0  0  0  0  0  0
   52.4187   -3.4492   -0.3618 C   0  0  0  0  0  0  0  0  0  0  0  0
   51.1618   -2.7762   -0.2167 C   0  0  0  0  0  0  0  0  0  0  0  0
   51.3560   -1.4178   -0.1266 N   0  0  0  0  0  0  0  0  0  0  0  0
   49.9383   -3.4279   -0.1657 C   0  0  0  0  0  0  0  0  0  0  0  0
   49.9216   -4.9106   -0.2073 C   0  0  0  0  0  0  0  0  0  0  0  0
   50.5332   -5.6463    0.8077 C   0  0  0  0  0  0  0  0  0  0  0  0
   50.5121   -7.0356    0.7710 C   0  0  0  0  0  0  0  0  0  0  0  0
   51.0947   -7.7608    1.7566 O   0  0  0  0  0  0  0  0  0  0  0  0
   49.8865   -7.6936   -0.2893 C   0  0  0  0  0  0  0  0  0  0  0  0
   49.8853   -9.0637   -0.3018 O   0  0  0  0  0  0  0  0  0  0  0  0
   49.2807   -6.9583   -1.3052 C   0  0  0  0  0  0  0  0  0  0  0  0
   48.6918   -7.6740   -2.3145 O   0  0  0  0  0  0  0  0  0  0  0  0
   49.2912   -5.5697   -1.2662 C   0  0  0  0  0  0  0  0  0  0  0  0
   48.7251   -2.7515   -0.0832 C   0  0  0  0  0  0  0  0  0  0  0  0
   47.4505   -3.4036    0.0065 C   0  0  0  0  0  0  0  0  0  0  0  0
   46.5110   -2.4288    0.0047 C   0  0  0  0  0  0  0  0  0  0  0  0
   47.2131   -1.1837   -0.0716 C   0  0  0  0  0  0  0  0  0  0  0  0
   48.5671   -1.3923   -0.0999 N   0  0  0  0  0  0  0  0  0  0  0  0
   45.4998    0.0535   -0.1523 H   0  0  0  0  0  0  0  0  0  0  0  0
   45.4932    2.6340   -0.2789 H   0  0  0  0  0  0  0  0  0  0  0  0
   47.3951    4.5415   -0.1520 H   0  0  0  0  0  0  0  0  0  0  0  0
   49.3153    5.1935   -1.8903 H   0  0  0  0  0  0  0  0  0  0  0  0
   49.3285    8.7487   -1.7328 H   0  0  0  0  0  0  0  0  0  0  0  0
   50.3295    9.3485    1.1880 H   0  0  0  0  0  0  0  0  0  0  0  0
   51.0493    7.0405    3.2042 H   0  0  0  0  0  0  0  0  0  0  0  0
   50.7142    4.9780    2.1734 H   0  0  0  0  0  0  0  0  0  0  0  0
   52.6249    4.4813    0.3517 H   0  0  0  0  0  0  0  0  0  0  0  0
   54.4959    2.5431    0.3119 H   0  0  0  0  0  0  0  0  0  0  0  0
   54.4485   -2.6124   -0.3993 H   0  0  0  0  0  0  0  0  0  0  0  0
   52.5396   -4.5133   -0.4824 H   0  0  0  0  0  0  0  0  0  0  0  0
   51.0102   -5.1457    1.6404 H   0  0  0  0  0  0  0  0  0  0  0  0
   50.9727   -8.7032    1.5551 H   0  0  0  0  0  0  0  0  0  0  0  0
   49.4129   -9.3546   -1.0980 H   0  0  0  0  0  0  0  0  0  0  0  0
   48.2954   -7.0834   -2.9684 H   0  0  0  0  0  0  0  0  0  0  0  0
   48.8288   -5.0036   -2.0662 H   0  0  0  0  0  0  0  0  0  0  0  0
   47.3056   -4.4699    0.0692 H   0  0  0  0  0  0  0  0  0  0  0  0
   45.4379   -2.5241    0.0551 H   0  0  0  0  0  0  0  0  0  0  0  0
   90.2078   -0.0627   -0.0257 Fe  0  0  0  0  0  0  0  0  0  0  0  0
   93.5992   -0.0911   -0.0729 C   0  0  0  0  0  0  0  0  0  0  0  0
   92.9444   -1.2932   -0.2416 C   0  0  0  0  0  0  0  0  0  0  0  0
   93.6227   -2.5419   -0.4157 C   0  0  0  0  0  0  0  0  0  0  0  0
   92.6655   -3.4966   -0.4804 C   0  0  0  0  0  0  0  0  0  0  0  0
   91.4025   -2.8275   -0.3547 C   0  0  0  0  0  0  0  0  0  0  0  0
   91.5869   -1.4786   -0.2149 N   0  0  0  0  0  0  0  0  0  0  0  0
   90.1790   -3.4876   -0.3069 C   0  0  0  0  0  0  0  0  0  0  0  0
   90.1692   -4.9676   -0.4194 C   0  0  0  0  0  0  0  0  0  0  0  0
   90.5932   -5.5839   -1.5964 C   0  0  0  0  0  0  0  0  0  0  0  0
   90.5810   -6.9701   -1.6998 C   0  0  0  0  0  0  0  0  0  0  0  0
   90.9836   -7.5801   -2.8410 O   0  0  0  0  0  0  0  0  0  0  0  0
   90.1519   -7.7441   -0.6203 C   0  0  0  0  0  0  0  0  0  0  0  0
   90.1552   -9.1082   -0.7495 O   0  0  0  0  0  0  0  0  0  0  0  0
   89.7328   -7.1277    0.5560 C   0  0  0  0  0  0  0  0  0  0  0  0
   89.3300   -7.9530    1.5728 O   0  0  0  0  0  0  0  0  0  0  0  0
   89.7354   -5.7422    0.6595 C   0  0  0  0  0  0  0  0  0  0  0  0
   88.9694   -2.8263   -0.1520 C   0  0  0  0  0  0  0  0  0  0  0  0
   87.6978   -3.4870   -0.1317 C   0  0  0  0  0  0  0  0  0  0  0  0
   86.7554   -2.5192   -0.0344 C   0  0  0  0  0  0  0  0  0  0  0  0
   88.7998   -1.4640   -0.0678 N   0  0  0  0  0  0  0  0  0  0  0  0
   87.4524   -1.2715   -0.0055 C   0  0  0  0  0  0  0  0  0  0  0  0
   86.7961   -0.0345    0.0225 C   0  0  0  0  0  0  0  0  0  0  0  0
   87.4735    1.1910    0.0357 C   0  0  0  0  0  0  0  0  0  0  0  0
   86.7999    2.4519    0.0375 C   0  0  0  0  0  0  0  0  0  0  0  0
   87.7606    3.4040    0.1050 C   0  0  0  0  0  0  0  0  0  0  0  0
   89.0186    2.7194    0.1536 C   0  0  0  0  0  0  0  0  0  0  0  0
   88.8247    1.3596    0.0841 N   0  0  0  0  0  0  0  0  0  0  0  0
   90.2428    3.3622    0.2625 C   0  0  0  0  0  0  0  0  0  0  0  0
   90.2601    4.8403    0.3876 C   0  0  0  0  0  0  0  0  0  0  0  0
   89.6710    5.4556    1.4921 C   0  0  0  0  0  0  0  0  0  0  0  0
   89.6949    6.8401    1.6132 C   0  0  0  0  0  0  0  0  0  0  0  0
   89.1352    7.4481    2.6871 O   0  0  0  0  0  0  0  0  0  0  0  0
   90.2999    7.6143    0.6215 C   0  0  0  0  0  0  0  0  0  0  0  0
   90.3046    8.9766    0.7654 O   0  0  0  0  0  0  0  0  0  0  0  0
   90.8823    6.9993   -0.4840 C   0  0  0  0  0  0  0  0  0  0  0  0
   91.4516    7.8250   -1.4174 O   0  0  0  0  0  0  0  0  0  0  0  0
   90.8699    5.6152   -0.6025 C   0  0  0  0  0  0  0  0  0  0  0  0
   91.4567    2.6822    0.2590 C   0  0  0  0  0  0  0  0  0  0  0  0
   92.7311    3.3226    0.4123 C   0  0  0  0  0  0  0  0  0  0  0  0
   93.6709    2.3532    0.3125 C   0  0  0  0  0  0  0  0  0  0  0  0
   92.9691    1.1221    0.1105 C   0  0  0  0  0  0  0  0  0  0  0  0
   91.6150    1.3323    0.1008 N   0  0  0  0  0  0  0  0  0  0  0  0
   94.6835   -0.1013   -0.0791 H   0  0  0  0  0  0  0  0  0  0  0  0
   94.6940   -2.6541   -0.4682 H   0  0  0  0  0  0  0  0  0  0  0  0
   92.7914   -4.5613   -0.5909 H   0  0  0  0  0  0  0  0  0  0  0  0
   90.9159   -4.9924   -2.4434 H   0  0  0  0  0  0  0  0  0  0  0  0
   90.9014   -8.5404   -2.7194 H   0  0  0  0  0  0  0  0  0  0  0  0
   89.8304   -9.4878    0.0825 H   0  0  0  0  0  0  0  0  0  0  0  0
   89.0603   -7.4396    2.3456 H   0  0  0  0  0  0  0  0  0  0  0  0
   89.4198   -5.2688    1.5817 H   0  0  0  0  0  0  0  0  0  0  0  0
   87.5534   -4.5528   -0.1998 H   0  0  0  0  0  0  0  0  0  0  0  0
   85.6831   -2.6244    0.0030 H   0  0  0  0  0  0  0  0  0  0  0  0
   85.7301    2.5762   -0.0100 H   0  0  0  0  0  0  0  0  0  0  0  0
   87.6391    4.4748    0.1148 H   0  0  0  0  0  0  0  0  0  0  0  0
   89.2102    4.8635    2.2722 H   0  0  0  0  0  0  0  0  0  0  0  0
   89.2531    8.4076    2.5910 H   0  0  0  0  0  0  0  0  0  0  0  0
   90.7583    9.3571   -0.0035 H   0  0  0  0  0  0  0  0  0  0  0  0
   91.8298    7.3131   -2.1443 H   0  0  0  0  0  0  0  0  0  0  0  0
   91.3149    5.1433   -1.4707 H   0  0  0  0  0  0  0  0  0  0  0  0
   92.8753    4.3773    0.5820 H   0  0  0  0  0  0  0  0  0  0  0  0
   94.7439    2.4432    0.3725 H   0  0  0  0  0  0  0  0  0  0  0  0
   56.0093   -0.0474   -0.0170 C   0  0  0  0  0  0  0  0  0  0  0  0
   54.7852   -0.0390   -0.0214 C   0  0  0  0  0  0  0  0  0  0  0  0
   57.3550   -0.0537   -0.0173 C   0  0  0  0  0  0  0  0  0  0  0  0
   58.5794   -0.0552   -0.0176 C   0  0  0  0  0  0  0  0  0  0  0  0
   69.4195   -0.0201    0.0700 C   0  0  0  0  0  0  0  0  0  0  0  0
   68.1945   -0.0231    0.0626 C   0  0  0  0  0  0  0  0  0  0  0  0
   70.7640   -0.0160    0.0696 C   0  0  0  0  0  0  0  0  0  0  0  0
   71.9890   -0.0125    0.0588 C   0  0  0  0  0  0  0  0  0  0  0  0
   82.8261   -0.0038    0.0383 C   0  0  0  0  0  0  0  0  0  0  0  0
   81.6016    0.0048    0.0335 C   0  0  0  0  0  0  0  0  0  0  0  0
   84.1716   -0.0095    0.0380 C   0  0  0  0  0  0  0  0  0  0  0  0
   85.3958   -0.0221    0.0312 C   0  0  0  0  0  0  0  0  0  0  0  0
   63.3879   -0.0351   -0.0194 Fe  0  0  0  0  0  0  0  0  0  0  0  0
   59.9786   -0.0505   -0.0212 C   0  0  0  0  0  0  0  0  0  0  0  0
   60.6461    1.1442    0.2820 C   0  0  0  0  0  0  0  0  0  0  0  0
   59.9740    2.3534    0.6360 C   0  0  0  0  0  0  0  0  0  0  0  0
   60.9238    3.3195    0.7010 C   0  0  0  0  0  0  0  0  0  0  0  0
   62.1705    2.6944    0.3773 C   0  0  0  0  0  0  0  0  0  0  0  0
   61.9893    1.3492    0.1727 N   0  0  0  0  0  0  0  0  0  0  0  0
   63.3724    3.3789    0.2234 C   0  0  0  0  0  0  0  0  0  0  0  0
   63.3569    4.8565    0.3080 C   0  0  0  0  0  0  0  0  0  0  0  0
   64.1360    5.5205    1.2570 C   0  0  0  0  0  0  0  0  0  0  0  0
   64.1249    6.9093    1.3480 C   0  0  0  0  0  0  0  0  0  0  0  0
   64.8692    7.5664    2.2747 O   0  0  0  0  0  0  0  0  0  0  0  0
   63.3327    7.6562    0.4693 C   0  0  0  0  0  0  0  0  0  0  0  0
   63.3062    9.0118    0.5280 O   0  0  0  0  0  0  0  0  0  0  0  0
   62.5586    6.9843   -0.4814 C   0  0  0  0  0  0  0  0  0  0  0  0
   61.8096    7.7751   -1.3132 O   0  0  0  0  0  0  0  0  0  0  0  0
   62.5584    5.5995   -0.5647 C   0  0  0  0  0  0  0  0  0  0  0  0
   64.5832    2.7347   -0.0028 C   0  0  0  0  0  0  0  0  0  0  0  0
   65.8312    3.4083   -0.2023 C   0  0  0  0  0  0  0  0  0  0  0  0
   66.7911    2.4510   -0.2330 C   0  0  0  0  0  0  0  0  0  0  0  0
   64.7764    1.3743    0.0225 N   0  0  0  0  0  0  0  0  0  0  0  0
   66.1234    1.1986   -0.0727 C   0  0  0  0  0  0  0  0  0  0  0  0
   66.7964   -0.0265    0.0420 C   0  0  0  0  0  0  0  0  0  0  0  0
   66.1261   -1.2553    0.1195 C   0  0  0  0  0  0  0  0  0  0  0  0
   66.7952   -2.5086    0.2715 C   0  0  0  0  0  0  0  0  0  0  0  0
   65.8449   -3.4697    0.1666 C   0  0  0  0  0  0  0  0  0  0  0  0
   64.6008   -2.7968   -0.0591 C   0  0  0  0  0  0  0  0  0  0  0  0
   64.7849   -1.4356   -0.0358 N   0  0  0  0  0  0  0  0  0  0  0  0
   63.4021   -3.4417   -0.3385 C   0  0  0  0  0  0  0  0  0  0  0  0
   63.4077   -4.9174   -0.4770 C   0  0  0  0  0  0  0  0  0  0  0  0
   64.1966   -5.5230   -1.4561 C   0  0  0  0  0  0  0  0  0  0  0  0
   64.1902   -6.9061   -1.5936 C   0  0  0  0  0  0  0  0  0  0  0  0
   64.9368   -7.5059   -2.5504 O   0  0  0  0  0  0  0  0  0  0  0  0
   63.4015   -7.6850   -0.7443 C   0  0  0  0  0  0  0  0  0  0  0  0
   63.4280   -9.0612   -0.9126 O   0  0  0  0  0  0  0  0  0  0  0  0
   62.6444   -7.0836    0.2596 C   0  0  0  0  0  0  0  0  0  0  0  0
   61.9004   -7.8425    1.1144 O   0  0  0  0  0  0  0  0  0  0  0  0
   62.6318   -5.6987    0.3801 C   0  0  0  0  0  0  0  0  0  0  0  0
   62.1959   -2.7655   -0.4853 C   0  0  0  0  0  0  0  0  0  0  0  0
   60.9536   -3.3967   -0.8156 C   0  0  0  0  0  0  0  0  0  0  0  0
   59.9933   -2.4448   -0.7147 C   0  0  0  0  0  0  0  0  0  0  0  0
   60.6553   -1.2360   -0.3390 C   0  0  0  0  0  0  0  0  0  0  0  0
   62.0013   -1.4274   -0.2461 N   0  0  0  0  0  0  0  0  0  0  0  0
   58.9130    2.4395    0.8072 H   0  0  0  0  0  0  0  0  0  0  0  0
   60.7991    4.3601    0.9525 H   0  0  0  0  0  0  0  0  0  0  0  0
   64.7414    4.9512    1.9534 H   0  0  0  0  0  0  0  0  0  0  0  0
   65.3694    6.9485    2.8238 H   0  0  0  0  0  0  0  0  0  0  0  0
   62.7007    9.3344   -0.1590 H   0  0  0  0  0  0  0  0  0  0  0  0
   61.3060    7.2383   -1.9391 H   0  0  0  0  0  0  0  0  0  0  0  0
   61.9606    5.1027   -1.3197 H   0  0  0  0  0  0  0  0  0  0  0  0
   65.9505    4.4741   -0.3084 H   0  0  0  0  0  0  0  0  0  0  0  0
   67.8557    2.5686   -0.3558 H   0  0  0  0  0  0  0  0  0  0  0  0
   67.8547   -2.6236    0.4343 H   0  0  0  0  0  0  0  0  0  0  0  0
   65.9667   -4.5381    0.2381 H   0  0  0  0  0  0  0  0  0  0  0  0
   64.7946   -4.9260   -2.1323 H   0  0  0  0  0  0  0  0  0  0  0  0
   64.8006   -8.4661   -2.4871 H   0  0  0  0  0  0  0  0  0  0  0  0
   62.5415   -9.4344   -0.8216 H   0  0  0  0  0  0  0  0  0  0  0  0
   62.2079   -8.7598    1.1056 H   0  0  0  0  0  0  0  0  0  0  0  0
   62.0406   -5.2419    1.1631 H   0  0  0  0  0  0  0  0  0  0  0  0
   60.8391   -4.4329   -1.0889 H   0  0  0  0  0  0  0  0  0  0  0  0
   58.9315   -2.5389   -0.8761 H   0  0  0  0  0  0  0  0  0  0  0  0
   76.7947    0.0007   -0.0059 Fe  0  0  0  0  0  0  0  0  0  0  0  0
   73.3869   -0.0085    0.0385 C   0  0  0  0  0  0  0  0  0  0  0  0
   74.0599    1.1960    0.2887 C   0  0  0  0  0  0  0  0  0  0  0  0
   73.3944    2.4168    0.6154 C   0  0  0  0  0  0  0  0  0  0  0  0
   74.3470    3.3817    0.6427 C   0  0  0  0  0  0  0  0  0  0  0  0
   75.5887    2.7449    0.3214 C   0  0  0  0  0  0  0  0  0  0  0  0
   75.4013    1.3941    0.1572 N   0  0  0  0  0  0  0  0  0  0  0  0
   76.7894    3.4201    0.1302 C   0  0  0  0  0  0  0  0  0  0  0  0
   76.7855    4.8990    0.1854 C   0  0  0  0  0  0  0  0  0  0  0  0
   77.5895    5.5724    1.1070 C   0  0  0  0  0  0  0  0  0  0  0  0
   77.5909    6.9625    1.1755 C   0  0  0  0  0  0  0  0  0  0  0  0
   78.3583    7.6288    2.0759 O   0  0  0  0  0  0  0  0  0  0  0  0
   76.7867    7.7010    0.3004 C   0  0  0  0  0  0  0  0  0  0  0  0
   76.7720    9.0573    0.3373 O   0  0  0  0  0  0  0  0  0  0  0  0
   75.9887    7.0198   -0.6235 C   0  0  0  0  0  0  0  0  0  0  0  0
   75.2301    7.8030   -1.4538 O   0  0  0  0  0  0  0  0  0  0  0  0
   75.9755    5.6337   -0.6835 C   0  0  0  0  0  0  0  0  0  0  0  0
   77.9944    2.7647   -0.1024 C   0  0  0  0  0  0  0  0  0  0  0  0
   79.2389    3.4278   -0.3513 C   0  0  0  0  0  0  0  0  0  0  0  0
   80.1966    2.4676   -0.3674 C   0  0  0  0  0  0  0  0  0  0  0  0
   78.1852    1.4064   -0.0337 N   0  0  0  0  0  0  0  0  0  0  0  0
   79.5307    1.2238   -0.1466 C   0  0  0  0  0  0  0  0  0  0  0  0
   80.2028    0.0048    0.0216 C   0  0  0  0  0  0  0  0  0  0  0  0
   79.5303   -1.2169    0.1621 C   0  0  0  0  0  0  0  0  0  0  0  0
   80.1966   -2.4655    0.3567 C   0  0  0  0  0  0  0  0  0  0  0  0
   79.2448   -3.4282    0.2797 C   0  0  0  0  0  0  0  0  0  0  0  0
   78.0025   -2.7607    0.0314 C   0  0  0  0  0  0  0  0  0  0  0  0
   78.1880   -1.4007    0.0136 N   0  0  0  0  0  0  0  0  0  0  0  0
   76.8021   -3.4125   -0.2309 C   0  0  0  0  0  0  0  0  0  0  0  0
   76.8114   -4.8899   -0.3461 C   0  0  0  0  0  0  0  0  0  0  0  0
   77.6049   -5.5057   -1.3153 C   0  0  0  0  0  0  0  0  0  0  0  0
   77.6024   -6.8902   -1.4362 C   0  0  0  0  0  0  0  0  0  0  0  0
   78.3535   -7.4994   -2.3828 O   0  0  0  0  0  0  0  0  0  0  0  0
   76.8123   -7.6607   -0.5802 C   0  0  0  0  0  0  0  0  0  0  0  0
   76.8433   -9.0392   -0.7307 O   0  0  0  0  0  0  0  0  0  0  0  0
   76.0508   -7.0491    0.4140 C   0  0  0  0  0  0  0  0  0  0  0  0
   75.3061   -7.7992    1.2754 O   0  0  0  0  0  0  0  0  0  0  0  0
   76.0352   -5.6627    0.5185 C   0  0  0  0  0  0  0  0  0  0  0  0
   75.5958   -2.7399   -0.3829 C   0  0  0  0  0  0  0  0  0  0  0  0
   74.3482   -3.3769   -0.6817 C   0  0  0  0  0  0  0  0  0  0  0  0
   73.3898   -2.4228   -0.5855 C   0  0  0  0  0  0  0  0  0  0  0  0
   74.0581   -1.2059   -0.2480 C   0  0  0  0  0  0  0  0  0  0  0  0
   75.4044   -1.3957   -0.1712 N   0  0  0  0  0  0  0  0  0  0  0  0
   72.3357    2.5101    0.7969 H   0  0  0  0  0  0  0  0  0  0  0  0
   74.2275    4.4292    0.8665 H   0  0  0  0  0  0  0  0  0  0  0  0
   78.2048    5.0097    1.7999 H   0  0  0  0  0  0  0  0  0  0  0  0
   78.8673    7.0166    2.6234 H   0  0  0  0  0  0  0  0  0  0  0  0
   76.1555    9.3742   -0.3426 H   0  0  0  0  0  0  0  0  0  0  0  0
   74.7105    7.2605   -2.0612 H   0  0  0  0  0  0  0  0  0  0  0  0
   75.3592    5.1296   -1.4185 H   0  0  0  0  0  0  0  0  0  0  0  0
   79.3574    4.4888   -0.4983 H   0  0  0  0  0  0  0  0  0  0  0  0
   81.2588    2.5781   -0.5156 H   0  0  0  0  0  0  0  0  0  0  0  0
   81.2557   -2.5771    0.5242 H   0  0  0  0  0  0  0  0  0  0  0  0
   79.3646   -4.4941    0.3847 H   0  0  0  0  0  0  0  0  0  0  0  0
   78.2035   -4.9154   -1.9968 H   0  0  0  0  0  0  0  0  0  0  0  0
   78.2219   -8.4594   -2.3073 H   0  0  0  0  0  0  0  0  0  0  0  0
   75.9548   -9.4126   -0.6630 H   0  0  0  0  0  0  0  0  0  0  0  0
   75.6072   -8.7188    1.2667 H   0  0  0  0  0  0  0  0  0  0  0  0
   75.4416   -5.1983    1.2951 H   0  0  0  0  0  0  0  0  0  0  0  0
   74.2289   -4.4184   -0.9318 H   0  0  0  0  0  0  0  0  0  0  0  0
   72.3258   -2.5200   -0.7292 H   0  0  0  0  0  0  0  0  0  0  0  0
  2  3  4  0  0  0  0
  3  4  4  0  0  0  0
  4  5  2  0  0  0  0
  5  6  4  0  0  0  0
  1  7  1  0  0  0  0
  3  7  4  0  0  0  0
  6  7  4  0  0  0  0
  6  8  4  0  0  0  0
  8  9  1  0  0  0  0
  9 10  4  0  0  0  0
 10 11  4  0  0  0  0
 11 12  1  0  0  0  0
 11 13  4  0  0  0  0
 13 14  1  0  0  0  0
 13 15  4  0  0  0  0
 15 16  1  0  0  0  0
  9 17  4  0  0  0  0
 15 17  4  0  0  0  0
  8 18  4  0  0  0  0
 18 19  4  0  0  0  0
 19 20  2  0  0  0  0
  1 21  1  0  0  0  0
 18 21  4  0  0  0  0
 20 22  4  0  0  0  0
 21 22  4  0  0  0  0
 22 23  4  0  0  0  0
 23 24  4  0  0  0  0
 24 25  4  0  0  0  0
 25 26  2  0  0  0  0
 26 27  4  0  0  0  0
  1 28  1  0  0  0  0
 24 28  4  0  0  0  0
 27 28  4  0  0  0  0
 27 29  4  0  0  0  0
 29 30  1  0  0  0  0
 30 31  4  0  0  0  0
 31 32  4  0  0  0  0
 32 33  1  0  0  0  0
 32 34  4  0  0  0  0
 34 35  1  0  0  0  0
 34 36  4  0  0  0  0
 36 37  1  0  0  0  0
 30 38  4  0  0  0  0
 36 38  4  0  0  0  0
 29 39  4  0  0  0  0
 39 40  4  0  0  0  0
 40 41  2  0  0  0  0
  2 42  4  0  0  0  0
 41 42  4  0  0  0  0
  1 43  1  0  0  0  0
 39 43  4  0  0  0  0
 42 43  4  0  0  0  0
  2 44  1  0  0  0  0
  4 45  1  0  0  0  0
  5 46  1  0  0  0  0
 10 47  1  0  0  0  0
 12 48  1  0  0  0  0
 14 49  1  0  0  0  0
 16 50  1  0  0  0  0
 17 51  1  0  0  0  0
 19 52  1  0  0  0  0
 20 53  1  0  0  0  0
 25 54  1  0  0  0  0
 26 55  1  0  0  0  0
 31 56  1  0  0  0  0
 33 57  1  0  0  0  0
 35 58  1  0  0  0  0
 37 59  1  0  0  0  0
 38 60  1  0  0  0  0
 40 61  1  0  0  0  0
 41 62  1  0  0  0  0
 64 65  4  0  0  0  0
 65 66  4  0  0  0  0
 66 67  2  0  0  0  0
 67 68  4  0  0  0  0
 63 69  1  0  0  0  0
 65 69  4  0  0  0  0
 68 69  4  0  0  0  0
 68 70  4  0  0  0  0
 70 71  1  0  0  0  0
 71 72  4  0  0  0  0
 72 73  4  0  0  0  0
 73 74  1  0  0  0  0
 73 75  4  0  0  0  0
 75 76  1  0  0  0  0
 75 77  4  0  0  0  0
 77 78  1  0  0  0  0
 71 79  4  0  0  0  0
 77 79  4  0  0  0  0
 70 80  4  0  0  0  0
 80 81  4  0  0  0  0
 81 82  2  0  0  0  0
 63 83  1  0  0  0  0
 80 83  4  0  0  0  0
 82 84  4  0  0  0  0
 83 84  4  0  0  0  0
 84 85  4  0  0  0  0
 85 86  4  0  0  0  0
 86 87  4  0  0  0  0
 87 88  2  0  0  0  0
 88 89  4  0  0  0  0
 63 90  1  0  0  0  0
 86 90  4  0  0  0  0
 89 90  4  0  0  0  0
 89 91  4  0  0  0  0
 91 92  1  0  0  0  0
 92 93  4  0  0  0  0
 93 94  4  0  0  0  0
 94 95  1  0  0  0  0
 94 96  4  0  0  0  0
 96 97  1  0  0  0  0
 96 98  4  0  0  0  0
 98 99  1  0  0  0  0
 92100  4  0  0  0  0
 98100  4  0  0  0  0
 91101  4  0  0  0  0
101102  4  0  0  0  0
102103  2  0  0  0  0
 64104  4  0  0  0  0
103104  4  0  0  0  0
 63105  1  0  0  0  0
101105  4  0  0  0  0
104105  4  0  0  0  0
 64106  1  0  0  0  0
 66107  1  0  0  0  0
 67108  1  0  0  0  0
 72109  1  0  0  0  0
 74110  1  0  0  0  0
 76111  1  0  0  0  0
 78112  1  0  0  0  0
 79113  1  0  0  0  0
 81114  1  0  0  0  0
 82115  1  0  0  0  0
 87116  1  0  0  0  0
 88117  1  0  0  0  0
 93118  1  0  0  0  0
 95119  1  0  0  0  0
 97120  1  0  0  0  0
 99121  1  0  0  0  0
100122  1  0  0  0  0
102123  1  0  0  0  0
103124  1  0  0  0  0
 23126  4  0  0  0  0
125126  3  0  0  0  0
125127  4  0  0  0  0
127128  3  0  0  0  0
129130  3  0  0  0  0
129131  4  0  0  0  0
131132  3  0  0  0  0
133134  3  0  0  0  0
133135  4  0  0  0  0
 85136  4  0  0  0  0
135136  3  0  0  0  0
128138  4  0  0  0  0
138139  4  0  0  0  0
139140  4  0  0  0  0
140141  2  0  0  0  0
141142  4  0  0  0  0
137143  1  0  0  0  0
139143  4  0  0  0  0
142143  4  0  0  0  0
142144  4  0  0  0  0
144145  1  0  0  0  0
145146  4  0  0  0  0
146147  4  0  0  0  0
147148  1  0  0  0  0
147149  4  0  0  0  0
149150  1  0  0  0  0
149151  4  0  0  0  0
151152  1  0  0  0  0
145153  4  0  0  0  0
151153  4  0  0  0  0
144154  4  0  0  0  0
154155  4  0  0  0  0
155156  2  0  0  0  0
137157  1  0  0  0  0
154157  4  0  0  0  0
156158  4  0  0  0  0
157158  4  0  0  0  0
130159  4  0  0  0  0
158159  4  0  0  0  0
159160  4  0  0  0  0
160161  4  0  0  0  0
161162  2  0  0  0  0
162163  4  0  0  0  0
137164  1  0  0  0  0
160164  4  0  0  0  0
163164  4  0  0  0  0
163165  4  0  0  0  0
165166  1  0  0  0  0
166167  4  0  0  0  0
167168  4  0  0  0  0
168169  1  0  0  0  0
168170  4  0  0  0  0
170171  1  0  0  0  0
170172  4  0  0  0  0
172173  1  0  0  0  0
166174  4  0  0  0  0
172174  4  0  0  0  0
165175  4  0  0  0  0
175176  4  0  0  0  0
176177  2  0  0  0  0
138178  4  0  0  0  0
177178  4  0  0  0  0
137179  1  0  0  0  0
175179  4  0  0  0  0
178179  4  0  0  0  0
140180  1  0  0  0  0
141181  1  0  0  0  0
146182  1  0  0  0  0
148183  1  0  0  0  0
150184  1  0  0  0  0
152185  1  0  0  0  0
153186  1  0  0  0  0
155187  1  0  0  0  0
156188  1  0  0  0  0
161189  1  0  0  0  0
162190  1  0  0  0  0
167191  1  0  0  0  0
169192  1  0  0  0  0
171193  1  0  0  0  0
173194  1  0  0  0  0
174195  1  0  0  0  0
176196  1  0  0  0  0
177197  1  0  0  0  0
132199  4  0  0  0  0
199200  4  0  0  0  0
200201  4  0  0  0  0
201202  2  0  0  0  0
202203  4  0  0  0  0
198204  1  0  0  0  0
200204  4  0  0  0  0
203204  4  0  0  0  0
203205  4  0  0  0  0
205206  1  0  0  0  0
206207  4  0  0  0  0
207208  4  0  0  0  0
208209  1  0  0  0  0
208210  4  0  0  0  0
210211  1  0  0  0  0
210212  4  0  0  0  0
212213  1  0  0  0  0
206214  4  0  0  0  0
212214  4  0  0  0  0
205215  4  0  0  0  0
215216  4  0  0  0  0
216217  2  0  0  0  0
198218  1  0  0  0  0
215218  4  0  0  0  0
217219  4  0  0  0  0
218219  4  0  0  0  0
134220  4  0  0  0  0
219220  4  0  0  0  0
220221  4  0  0  0  0
221222  4  0  0  0  0
222223  2  0  0  0  0
223224  4  0  0  0  0
198225  1  0  0  0  0
221225  4  0  0  0  0
224225  4  0  0  0  0
224226  4  0  0  0  0
226227  1  0  0  0  0
227228  4  0  0  0  0
228229  4  0  0  0  0
229230  1  0  0  0  0
229231  4  0  0  0  0
231232  1  0  0  0  0
231233  4  0  0  0  0
233234  1  0  0  0  0
227235  4  0  0  0  0
233235  4  0  0  0  0
226236  4  0  0  0  0
236237  4  0  0  0  0
237238  2  0  0  0  0
199239  4  0  0  0  0
238239  4  0  0  0  0
198240  1  0  0  0  0
236240  4  0  0  0  0
239240  4  0  0  0  0
201241  1  0  0  0  0
202242  1  0  0  0  0
207243  1  0  0  0  0
209244  1  0  0  0  0
211245  1  0  0  0  0
213246  1  0  0  0  0
214247  1  0  0  0  0
216248  1  0  0  0  0
217249  1  0  0  0  0
222250  1  0  0  0  0
223251  1  0  0  0  0
228252  1  0  0  0  0
230253  1  0  0  0  0
232254  1  0  0  0  0
234255  1  0  0  0  0
235256  1  0  0  0  0
237257  1  0  0  0  0
238258  1  0  0  0  0
M  END
