227

Fe 27.838409 -0.018840 -0.034701
C 24.494358 0.110777 0.057672
C 25.162232 0.895266 0.908155
C 24.517343 1.774590 1.876418
C 25.463237 2.425040 2.527897
C 26.765163 1.993858 2.002281
N 26.581905 1.018443 0.976279
C 27.958756 2.472167 2.404960
C 29.252285 2.019361 1.832917
C 30.543850 2.636662 2.155286
C 31.478222 1.981264 1.497561
N 29.389964 1.022610 1.012945
C 30.790724 0.934125 0.751147
C 31.383859 0.001192 -0.012338
C 30.623456 -1.046680 -0.732644
C 31.170091 -2.140677 -1.248590
C 30.121587 -2.862802 -1.940904
C 29.002087 -2.161925 -1.804690
C 27.707389 -2.527868 -2.434742
C 27.711253 -3.537053 -3.524025
C 28.238897 -3.198347 -4.786171
O 28.736926 -1.899605 -4.985585
C 29.300125 -1.428311 -6.204900
C 28.250144 -4.163312 -5.810007
C 27.745548 -5.442733 -5.578228
C 27.228536 -5.779950 -4.327448
C 27.210513 -4.833497 -3.286464
O 26.711134 -5.144147 -2.010136
C 26.163707 -6.405644 -1.641918
C 26.544374 -1.967705 -2.053557
C 25.227716 -2.249558 -2.621960
C 24.367166 -1.530732 -1.927678
C 25.125773 -0.783895 -0.925382
N 26.396316 -1.031277 -0.988936
N 29.228532 -0.979913 -1.033503
C 28.002828 3.511485 3.459550
C 28.133248 3.131697 4.809566
O 28.218481 1.764732 5.122883
C 28.340087 1.244739 6.443001
C 28.172966 4.126971 5.803418
C 28.086266 5.475090 5.454156
C 27.961309 5.850134 4.115916
C 27.920034 4.872317 3.104914
O 27.799508 5.211856 1.746772
C 27.720600 6.544634 1.251536
H 23.410965 0.133577 0.080129
H 23.453539 1.889170 2.041466
H 25.282900 3.154248 3.307271
H 30.720436 3.478092 2.812475
H 32.537494 2.197199 1.533707
H 32.208461 -2.437591 -1.187642
H 30.240539 -3.789173 -2.487752
H 28.544951 -1.476103 -7.017657
H 29.614892 -0.372597 -6.073995
H 30.191730 -2.033612 -6.472636
H 28.646029 -3.934279 -6.789929
H 27.758062 -6.178588 -6.372043
H 26.849307 -6.781587 -4.179116
H 25.845233 -6.366094 -0.580338
H 25.276986 -6.634509 -2.270057
H 26.929328 -7.202458 -1.754294
H 24.980909 -2.912900 -3.440793
H 23.296557 -1.507185 -2.083233
H 28.387573 0.137916 6.392893
H 27.456725 1.535644 7.049985
H 29.272358 1.620097 6.916429
H 28.269188 3.869668 6.849491
H 28.117045 6.234191 6.225346
H 27.898292 6.903315 3.878527
H 28.638591 7.108227 1.523642
H 27.636916 6.515344 0.146056
H 26.822142 7.051270 1.663013
Fe 61.409822 0.020482 0.010667
C 64.753873 -0.052541 -0.130756
C 64.085999 -0.782962 -1.028102
C 64.730888 -1.616499 -2.036052
C 63.784994 -2.168975 -2.772448
C 62.483068 -1.709938 -2.270975
N 62.666326 -0.832899 -1.159707
C 61.289474 -2.040589 -2.801634
C 59.995946 -1.538669 -2.272162
C 58.704381 -1.770081 -2.928995
C 57.770009 -1.212126 -2.186813
N 59.858267 -0.868601 -1.169040
C 58.457507 -0.622028 -1.044264
C 57.864372 0.001192 -0.012338
C 58.624775 0.565343 1.127228
C 58.078140 0.920654 2.283422
C 59.126643 1.503369 3.096568
C 60.246143 1.468096 2.383448
C 61.540842 2.039777 2.835180
C 61.536978 2.974659 3.988864
C 61.009334 4.272120 3.832881
O 60.511305 4.653998 2.575636
C 59.948106 5.927896 2.282326
C 60.998087 5.148499 4.933498
C 61.502683 4.737328 6.167020
C 62.019695 3.451329 6.323144
C 62.037717 2.555346 5.238416
O 62.537097 1.247833 5.364613
C 63.084524 0.704152 6.561012
C 62.703857 1.742029 2.226550
C 64.020515 2.264630 2.586287
C 64.881065 1.679498 1.776126
C 64.122458 0.793455 0.894486
N 62.851915 0.821224 1.148387
N 60.019698 0.872635 1.103875
C 61.245403 -2.936850 -3.980218
C 61.114983 -4.327125 -3.796052
O 61.029750 -4.831443 -2.487456
C 60.908144 -6.212039 -2.160259
C 61.075265 -5.169520 -4.922411
C 61.161965 -4.632298 -6.207246
C 61.286922 -3.254353 -6.388389
C 61.328197 -2.392503 -5.276875
O 61.448723 -0.999901 -5.420046
C 61.527631 -0.320366 -6.668960
H 65.837266 -0.071532 -0.156516
H 65.794692 -1.763596 -2.172915
H 63.965331 -2.836860 -3.604973
H 58.527795 -2.301080 -3.855246
H 56.710737 -1.217231 -2.405692
H 57.039770 0.818147 2.568667
H 59.007692 1.913081 4.091224
H 60.703280 6.725622 2.445087
H 59.633339 5.948283 1.218722
H 59.056501 6.106934 2.919521
H 60.602202 6.151019 4.845986
H 61.490169 5.418565 7.008175
H 62.398924 3.162219 7.293552
H 63.402998 -0.341044 6.371065
H 63.971245 1.293411 6.876783
H 62.318903 0.702201 7.365709
H 64.267322 2.980932 3.359217
H 65.951674 1.836821 1.774915
H 60.860657 -6.319665 -1.057543
H 61.791506 -6.771545 -2.534437
H 59.975873 -6.627347 -2.599062
H 60.979042 -6.241535 -4.816312
H 61.131186 -5.287837 -7.068198
H 61.349939 -2.869766 -7.397168
H 60.609639 -0.509654 -7.265490
H 61.611315 0.769744 -6.482933
H 62.426088 -0.655703 -7.228908
C 37.447376 0.002294 -0.003848
C 36.238437 -0.011161 -0.012295
C 34.816908 -0.002341 -0.024278
C 33.605238 0.005097 -0.013415
C 38.863980 -0.004381 -0.003315
C 40.084676 0.005097 -0.013415
C 53.008543 0.002294 -0.003848
C 51.799603 -0.011161 -0.012295
C 50.378074 -0.002341 -0.024278
C 49.166405 0.005097 -0.013415
C 54.425147 -0.004381 -0.003315
C 55.645843 0.005097 -0.013415
Fe 44.530363 0.004252 -0.062263
C 41.174887 -0.003279 0.027291
C 41.832106 -0.051234 1.200710
C 41.190959 -0.167666 2.512612
C 42.131115 -0.148904 3.436170
C 43.429938 -0.017417 2.769785
N 43.250821 0.041088 1.353040
C 44.615310 0.061409 3.407808
C 45.916075 0.181370 2.704898
C 47.187917 0.447468 3.387370
C 48.142125 0.436592 2.479524
N 46.083415 0.012305 1.430145
C 47.485906 0.160033 1.207726
C 48.104033 -0.003279 0.027291
C 47.361158 -0.280564 -1.221525
C 47.913991 -0.747746 -2.333847
C 46.879320 -0.776552 -3.349008
C 45.763945 -0.323820 -2.788279
C 44.496496 -0.089712 -3.520675
C 44.542468 -0.004562 -5.001922
C 44.051186 -1.069243 -5.784245
O 43.526876 -2.200594 -5.136348
C 43.001952 -3.343067 -5.804058
C 44.103532 -0.973838 -7.187099
C 44.642540 0.158833 -7.797227
C 45.136861 1.208100 -7.022605
C 45.092910 1.136810 -5.618044
O 45.578704 2.175916 -4.806764
C 46.151902 3.383517 -5.296660
C 43.322323 0.067723 -2.882334
C 42.039027 0.346862 -3.517509
C 41.148282 0.369644 -2.547593
C 41.851809 0.108752 -1.286230
N 43.123504 -0.067055 -1.475231
N 45.977259 0.009643 -1.417280
C 44.644696 0.021471 4.888968
C 44.891180 -1.197943 5.549065
O 45.097981 -2.354723 4.778879
C 45.355084 -3.647622 5.316275
C 44.921749 -1.225112 6.955360
C 44.712797 -0.056255 7.687353
C 44.473551 1.151792 7.032507
C 44.438920 1.203617 5.626886
O 44.208043 2.403204 4.932959
C 43.996600 3.667055 5.553188
H 40.133246 -0.253550 2.722446
H 41.947218 -0.217311 4.500747
H 47.337938 0.620081 4.445018
H 49.194380 0.597041 2.672940
H 48.949431 -1.026826 -2.475106
H 47.007303 -1.073247 -4.382005
H 42.134377 -3.051735 -6.433024
H 42.661658 -4.079998 -5.047921
H 43.789075 -3.814349 -6.430127
H 43.732385 -1.771288 -7.815896
H 44.679014 0.223076 -8.877267
H 45.549815 2.071531 -7.526346
H 46.449268 4.017409 -4.436853
H 45.409043 3.938799 -5.907335
H 47.054832 3.158862 -5.902808
H 41.832861 0.506676 -4.568091
H 40.091234 0.555542 -2.683976
H 44.501180 -3.975736 5.945708
H 45.479714 -4.367667 4.481674
H 46.289689 -3.633191 5.915729
H 45.106508 -2.144822 7.493054
H 44.738662 -0.086431 8.768982
H 44.319036 2.040531 7.628850
H 44.883732 3.948144 6.158969
H 43.090323 3.630698 6.193979
H 43.845426 4.435058 4.767345
