 xtb: 6.5.1 (b24c23e)
          07292218183D

227256  0     0  0            999 V2000
   28.6300    0.1429   -0.1082 Fe  0  0  0  0  0  0  0  0  0  0  0  0
   25.2543    0.3741   -0.2967 C   0  0  0  0  0  0  0  0  0  0  0  0
   25.9083    1.2056    0.5888 C   0  0  0  0  0  0  0  0  0  0  0  0
   25.2358    2.1542    1.4247 C   0  0  0  0  0  0  0  0  0  0  0  0
   26.1818    2.7125    2.2156 C   0  0  0  0  0  0  0  0  0  0  0  0
   27.4335    2.1155    1.8509 C   0  0  0  0  0  0  0  0  0  0  0  0
   27.2531    1.1986    0.8510 N   0  0  0  0  0  0  0  0  0  0  0  0
   28.6413    2.4049    2.4744 C   0  0  0  0  0  0  0  0  0  0  0  0
   29.8447    1.8373    2.0862 C   0  0  0  0  0  0  0  0  0  0  0  0
   31.1075    2.1741    2.6730 C   0  0  0  0  0  0  0  0  0  0  0  0
   32.0564    1.5186    1.9633 C   0  0  0  0  0  0  0  0  0  0  0  0
   30.0231    0.9610    1.0413 N   0  0  0  0  0  0  0  0  0  0  0  0
   31.3709    0.7789    0.9496 C   0  0  0  0  0  0  0  0  0  0  0  0
   32.0343    0.0107   -0.0143 C   0  0  0  0  0  0  0  0  0  0  0  0
   31.3631   -0.7535   -0.9759 C   0  0  0  0  0  0  0  0  0  0  0  0
   32.0406   -1.5913   -1.9163 C   0  0  0  0  0  0  0  0  0  0  0  0
   31.0820   -2.2623   -2.5980 C   0  0  0  0  0  0  0  0  0  0  0  0
   29.8208   -1.8169   -2.0856 C   0  0  0  0  0  0  0  0  0  0  0  0
   28.5966   -2.3023   -2.5175 C   0  0  0  0  0  0  0  0  0  0  0  0
   28.5771   -3.3717   -3.5538 C   0  0  0  0  0  0  0  0  0  0  0  0
   28.9400   -3.0887   -4.8769 C   0  0  0  0  0  0  0  0  0  0  0  0
   29.2899   -1.8008   -5.1334 O   0  0  0  0  0  0  0  0  0  0  0  0
   29.6674   -1.4068   -6.4371 C   0  0  0  0  0  0  0  0  0  0  0  0
   28.9193   -4.0938   -5.8435 C   0  0  0  0  0  0  0  0  0  0  0  0
   28.5392   -5.3773   -5.4817 C   0  0  0  0  0  0  0  0  0  0  0  0
   28.1743   -5.6803   -4.1787 C   0  0  0  0  0  0  0  0  0  0  0  0
   28.1895   -4.6743   -3.2131 C   0  0  0  0  0  0  0  0  0  0  0  0
   27.8521   -4.8704   -1.9116 O   0  0  0  0  0  0  0  0  0  0  0  0
   27.4531   -6.1485   -1.4594 C   0  0  0  0  0  0  0  0  0  0  0  0
   27.3830   -1.8177   -2.0465 C   0  0  0  0  0  0  0  0  0  0  0  0
   26.1085   -2.2468   -2.5445 C   0  0  0  0  0  0  0  0  0  0  0  0
   25.1728   -1.4754   -1.9430 C   0  0  0  0  0  0  0  0  0  0  0  0
   25.8763   -0.5834   -1.0710 C   0  0  0  0  0  0  0  0  0  0  0  0
   27.2257   -0.8127   -1.1308 N   0  0  0  0  0  0  0  0  0  0  0  0
   30.0114   -0.8852   -1.0926 N   0  0  0  0  0  0  0  0  0  0  0  0
   28.6488    3.3891    3.5918 C   0  0  0  0  0  0  0  0  0  0  0  0
   28.8987    2.9680    4.9046 C   0  0  0  0  0  0  0  0  0  0  0  0
   29.1117    1.6362    5.0698 O   0  0  0  0  0  0  0  0  0  0  0  0
   29.3818    1.1071    6.3520 C   0  0  0  0  0  0  0  0  0  0  0  0
   28.9087    3.8900    5.9509 C   0  0  0  0  0  0  0  0  0  0  0  0
   28.6755    5.2296    5.6791 C   0  0  0  0  0  0  0  0  0  0  0  0
   28.4296    5.6700    4.3874 C   0  0  0  0  0  0  0  0  0  0  0  0
   28.4137    4.7477    3.3417 C   0  0  0  0  0  0  0  0  0  0  0  0
   28.1894    5.0821    2.0437 O   0  0  0  0  0  0  0  0  0  0  0  0
   27.9364    6.4248    1.6826 C   0  0  0  0  0  0  0  0  0  0  0  0
   24.1763    0.4647   -0.3735 H   0  0  0  0  0  0  0  0  0  0  0  0
   24.1743    2.3448    1.4019 H   0  0  0  0  0  0  0  0  0  0  0  0
   26.0571    3.4614    2.9806 H   0  0  0  0  0  0  0  0  0  0  0  0
   31.2395    2.8378    3.5118 H   0  0  0  0  0  0  0  0  0  0  0  0
   33.1261    1.5274    2.0984 H   0  0  0  0  0  0  0  0  0  0  0  0
   33.1120   -1.6569   -2.0184 H   0  0  0  0  0  0  0  0  0  0  0  0
   31.2057   -2.9926   -3.3809 H   0  0  0  0  0  0  0  0  0  0  0  0
   28.8525   -1.5605   -7.1549 H   0  0  0  0  0  0  0  0  0  0  0  0
   29.8965   -0.3412   -6.3777 H   0  0  0  0  0  0  0  0  0  0  0  0
   30.5580   -1.9482   -6.7785 H   0  0  0  0  0  0  0  0  0  0  0  0
   29.1955   -3.8855   -6.8684 H   0  0  0  0  0  0  0  0  0  0  0  0
   28.5261   -6.1594   -6.2329 H   0  0  0  0  0  0  0  0  0  0  0  0
   27.8819   -6.6905   -3.9249 H   0  0  0  0  0  0  0  0  0  0  0  0
   27.2377   -6.0402   -0.3949 H   0  0  0  0  0  0  0  0  0  0  0  0
   26.5494   -6.4937   -1.9763 H   0  0  0  0  0  0  0  0  0  0  0  0
   28.2515   -6.8888   -1.5920 H   0  0  0  0  0  0  0  0  0  0  0  0
   25.9650   -3.0301   -3.2712 H   0  0  0  0  0  0  0  0  0  0  0  0
   24.1013   -1.4922   -2.0657 H   0  0  0  0  0  0  0  0  0  0  0  0
   29.5216    0.0334    6.2139 H   0  0  0  0  0  0  0  0  0  0  0  0
   28.5452    1.2758    7.0409 H   0  0  0  0  0  0  0  0  0  0  0  0
   30.2957    1.5373    6.7796 H   0  0  0  0  0  0  0  0  0  0  0  0
   29.0966    3.5745    6.9684 H   0  0  0  0  0  0  0  0  0  0  0  0
   28.6863    5.9469    6.4924 H   0  0  0  0  0  0  0  0  0  0  0  0
   28.2538    6.7215    4.2040 H   0  0  0  0  0  0  0  0  0  0  0  0
   28.7878    7.0730    1.9233 H   0  0  0  0  0  0  0  0  0  0  0  0
   27.7805    6.4242    0.6022 H   0  0  0  0  0  0  0  0  0  0  0  0
   27.0361    6.8108    2.1759 H   0  0  0  0  0  0  0  0  0  0  0  0
   60.6096    0.0598   -0.1310 Fe  0  0  0  0  0  0  0  0  0  0  0  0
   63.9833    0.3423   -0.3323 C   0  0  0  0  0  0  0  0  0  0  0  0
   63.3552   -0.5044   -1.2223 C   0  0  0  0  0  0  0  0  0  0  0  0
   64.0527   -1.2777   -2.2054 C   0  0  0  0  0  0  0  0  0  0  0  0
   63.1124   -1.9624   -2.8978 C   0  0  0  0  0  0  0  0  0  0  0  0
   61.8408   -1.5915   -2.3487 C   0  0  0  0  0  0  0  0  0  0  0  0
   62.0049   -0.7200   -1.3063 N   0  0  0  0  0  0  0  0  0  0  0  0
   60.6229   -2.0326   -2.8515 C   0  0  0  0  0  0  0  0  0  0  0  0
   59.4027   -1.6395   -2.3250 C   0  0  0  0  0  0  0  0  0  0  0  0
   58.1383   -2.0082   -2.8879 C   0  0  0  0  0  0  0  0  0  0  0  0
   57.1842   -1.4402   -2.1125 C   0  0  0  0  0  0  0  0  0  0  0  0
   59.2191   -0.8454   -1.2179 N   0  0  0  0  0  0  0  0  0  0  0  0
   57.8685   -0.7349   -1.0736 C   0  0  0  0  0  0  0  0  0  0  0  0
   57.2038   -0.0963   -0.0193 C   0  0  0  0  0  0  0  0  0  0  0  0
   57.8760    0.5506    1.0254 C   0  0  0  0  0  0  0  0  0  0  0  0
   57.2019    1.1350    2.1430 C   0  0  0  0  0  0  0  0  0  0  0  0
   58.1574    1.6981    2.9202 C   0  0  0  0  0  0  0  0  0  0  0  0
   59.4106    1.4707    2.2648 C   0  0  0  0  0  0  0  0  0  0  0  0
   60.6196    1.9717    2.7193 C   0  0  0  0  0  0  0  0  0  0  0  0
   60.6282    2.8045    3.9536 C   0  0  0  0  0  0  0  0  0  0  0  0
   60.0659    4.0880    3.9462 C   0  0  0  0  0  0  0  0  0  0  0  0
   59.5384    4.4978    2.7632 O   0  0  0  0  0  0  0  0  0  0  0  0
   58.9553    5.7796    2.6433 C   0  0  0  0  0  0  0  0  0  0  0  0
   60.0795    4.8696    5.1010 C   0  0  0  0  0  0  0  0  0  0  0  0
   60.6510    4.3630    6.2584 C   0  0  0  0  0  0  0  0  0  0  0  0
   61.2130    3.0957    6.2893 C   0  0  0  0  0  0  0  0  0  0  0  0
   61.2051    2.3158    5.1332 C   0  0  0  0  0  0  0  0  0  0  0  0
   61.7260    1.0629    5.0635 O   0  0  0  0  0  0  0  0  0  0  0  0
   62.3291    0.4737    6.1976 C   0  0  0  0  0  0  0  0  0  0  0  0
   61.8238    1.7560    2.0600 C   0  0  0  0  0  0  0  0  0  0  0  0
   63.0718    2.3289    2.4726 C   0  0  0  0  0  0  0  0  0  0  0  0
   64.0115    1.8879    1.6036 C   0  0  0  0  0  0  0  0  0  0  0  0
   63.3365    1.0429    0.6647 C   0  0  0  0  0  0  0  0  0  0  0  0
   61.9962    0.9841    0.9438 N   0  0  0  0  0  0  0  0  0  0  0  0
   59.2223    0.7375    1.1164 N   0  0  0  0  0  0  0  0  0  0  0  0
   60.6257   -2.9436   -4.0292 C   0  0  0  0  0  0  0  0  0  0  0  0
   60.2296   -4.2805   -3.8896 C   0  0  0  0  0  0  0  0  0  0  0  0
   59.8713   -4.6651   -2.6370 O   0  0  0  0  0  0  0  0  0  0  0  0
   59.4589   -5.9933   -2.3855 C   0  0  0  0  0  0  0  0  0  0  0  0
   60.2296   -5.1340   -4.9925 C   0  0  0  0  0  0  0  0  0  0  0  0
   60.6189   -4.6456   -6.2305 C   0  0  0  0  0  0  0  0  0  0  0  0
   61.0115   -3.3256   -6.3931 C   0  0  0  0  0  0  0  0  0  0  0  0
   61.0174   -2.4731   -5.2896 C   0  0  0  0  0  0  0  0  0  0  0  0
   61.3775   -1.1641   -5.3487 O   0  0  0  0  0  0  0  0  0  0  0  0
   61.7887   -0.5880   -6.5718 C   0  0  0  0  0  0  0  0  0  0  0  0
   65.0599    0.4482   -0.4084 H   0  0  0  0  0  0  0  0  0  0  0  0
   65.1242   -1.2850   -2.3302 H   0  0  0  0  0  0  0  0  0  0  0  0
   63.2517   -2.6523   -3.7143 H   0  0  0  0  0  0  0  0  0  0  0  0
   58.0104   -2.6193   -3.7666 H   0  0  0  0  0  0  0  0  0  0  0  0
   56.1121   -1.4916   -2.2156 H   0  0  0  0  0  0  0  0  0  0  0  0
   56.1355    1.1054    2.2997 H   0  0  0  0  0  0  0  0  0  0  0  0
   58.0366    2.2294    3.8502 H   0  0  0  0  0  0  0  0  0  0  0  0
   59.6849    6.5732    2.8458 H   0  0  0  0  0  0  0  0  0  0  0  0
   58.6135    5.8620    1.6100 H   0  0  0  0  0  0  0  0  0  0  0  0
   58.0974    5.8955    3.3167 H   0  0  0  0  0  0  0  0  0  0  0  0
   59.6512    5.8630    5.1051 H   0  0  0  0  0  0  0  0  0  0  0  0
   60.6591    4.9702    7.1570 H   0  0  0  0  0  0  0  0  0  0  0  0
   61.6513    2.7261    7.2066 H   0  0  0  0  0  0  0  0  0  0  0  0
   62.6660   -0.5157    5.8827 H   0  0  0  0  0  0  0  0  0  0  0  0
   63.1930    1.0556    6.5411 H   0  0  0  0  0  0  0  0  0  0  0  0
   61.6141    0.3652    7.0222 H   0  0  0  0  0  0  0  0  0  0  0  0
   63.1969    2.9841    3.3195 H   0  0  0  0  0  0  0  0  0  0  0  0
   65.0693    2.0987    1.5861 H   0  0  0  0  0  0  0  0  0  0  0  0
   59.2282   -6.0426   -1.3197 H   0  0  0  0  0  0  0  0  0  0  0  0
   60.2551   -6.7116   -2.6153 H   0  0  0  0  0  0  0  0  0  0  0  0
   58.5612   -6.2508   -2.9606 H   0  0  0  0  0  0  0  0  0  0  0  0
   59.9295   -6.1687   -4.8950 H   0  0  0  0  0  0  0  0  0  0  0  0
   60.6159   -5.3088   -7.0886 H   0  0  0  0  0  0  0  0  0  0  0  0
   61.3077   -2.9711   -7.3713 H   0  0  0  0  0  0  0  0  0  0  0  0
   60.9894   -0.6244   -7.3219 H   0  0  0  0  0  0  0  0  0  0  0  0
   62.0264    0.4543   -6.3515 H   0  0  0  0  0  0  0  0  0  0  0  0
   62.6820   -1.0846   -6.9697 H   0  0  0  0  0  0  0  0  0  0  0  0
   37.2333   -0.0497    0.0174 C   0  0  0  0  0  0  0  0  0  0  0  0
   36.0035   -0.0399    0.0125 C   0  0  0  0  0  0  0  0  0  0  0  0
   34.6613   -0.0271    0.0038 C   0  0  0  0  0  0  0  0  0  0  0  0
   33.4361   -0.0120   -0.0021 C   0  0  0  0  0  0  0  0  0  0  0  0
   38.5754   -0.0551    0.0204 C   0  0  0  0  0  0  0  0  0  0  0  0
   39.8009   -0.0550    0.0229 C   0  0  0  0  0  0  0  0  0  0  0  0
   53.2369   -0.1407    0.0227 C   0  0  0  0  0  0  0  0  0  0  0  0
   52.0063   -0.1411    0.0290 C   0  0  0  0  0  0  0  0  0  0  0  0
   50.6654   -0.1349    0.0329 C   0  0  0  0  0  0  0  0  0  0  0  0
   49.4394   -0.1232    0.0343 C   0  0  0  0  0  0  0  0  0  0  0  0
   54.5779   -0.1326    0.0131 C   0  0  0  0  0  0  0  0  0  0  0  0
   55.8037   -0.1210    0.0011 C   0  0  0  0  0  0  0  0  0  0  0  0
   44.6210   -0.0483    0.0275 Fe  0  0  0  0  0  0  0  0  0  0  0  0
   41.2019   -0.0503    0.0248 C   0  0  0  0  0  0  0  0  0  0  0  0
   41.8703   -0.0926    1.2545 C   0  0  0  0  0  0  0  0  0  0  0  0
   41.1915   -0.1657    2.5104 C   0  0  0  0  0  0  0  0  0  0  0  0
   42.1467   -0.1107    3.4698 C   0  0  0  0  0  0  0  0  0  0  0  0
   43.4038    0.0006    2.7940 C   0  0  0  0  0  0  0  0  0  0  0  0
   43.2194   -0.0163    1.4332 N   0  0  0  0  0  0  0  0  0  0  0  0
   44.6200    0.1442    3.4469 C   0  0  0  0  0  0  0  0  0  0  0  0
   45.8363    0.2132    2.7831 C   0  0  0  0  0  0  0  0  0  0  0  0
   47.0941    0.3918    3.4430 C   0  0  0  0  0  0  0  0  0  0  0  0
   48.0504    0.3222    2.4856 C   0  0  0  0  0  0  0  0  0  0  0  0
   46.0217    0.0721    1.4293 N   0  0  0  0  0  0  0  0  0  0  0  0
   47.3713    0.1086    1.2461 C   0  0  0  0  0  0  0  0  0  0  0  0
   48.0399   -0.1008    0.0327 C   0  0  0  0  0  0  0  0  0  0  0  0
   47.3684   -0.2749   -1.1845 C   0  0  0  0  0  0  0  0  0  0  0  0
   48.0445   -0.4849   -2.4263 C   0  0  0  0  0  0  0  0  0  0  0  0
   47.0913   -0.4886   -3.3893 C   0  0  0  0  0  0  0  0  0  0  0  0
   45.8379   -0.2813   -2.7296 C   0  0  0  0  0  0  0  0  0  0  0  0
   44.6258   -0.1660   -3.3953 C   0  0  0  0  0  0  0  0  0  0  0  0
   44.6328   -0.1946   -4.8838 C   0  0  0  0  0  0  0  0  0  0  0  0
   44.1001   -1.2893   -5.5775 C   0  0  0  0  0  0  0  0  0  0  0  0
   43.6035   -2.2938   -4.8097 O   0  0  0  0  0  0  0  0  0  0  0  0
   43.0430   -3.4445   -5.4095 C   0  0  0  0  0  0  0  0  0  0  0  0
   44.1111   -1.3120   -6.9719 C   0  0  0  0  0  0  0  0  0  0  0  0
   44.6487   -0.2385   -7.6656 C   0  0  0  0  0  0  0  0  0  0  0  0
   45.1792    0.8563   -7.0003 C   0  0  0  0  0  0  0  0  0  0  0  0
   45.1748    0.8774   -5.6060 C   0  0  0  0  0  0  0  0  0  0  0  0
   45.6635    1.9050   -4.8645 O   0  0  0  0  0  0  0  0  0  0  0  0
   46.2253    3.0395   -5.4932 C   0  0  0  0  0  0  0  0  0  0  0  0
   43.4092   -0.0302   -2.7418 C   0  0  0  0  0  0  0  0  0  0  0  0
   42.1527    0.0927   -3.4167 C   0  0  0  0  0  0  0  0  0  0  0  0
   41.1950    0.1090   -2.4585 C   0  0  0  0  0  0  0  0  0  0  0  0
   41.8721    0.0095   -1.2035 C   0  0  0  0  0  0  0  0  0  0  0  0
   43.2219   -0.0500   -1.3810 N   0  0  0  0  0  0  0  0  0  0  0  0
   46.0220   -0.1812   -1.3722 N   0  0  0  0  0  0  0  0  0  0  0  0
   44.6200    0.2188    4.9339 C   0  0  0  0  0  0  0  0  0  0  0  0
   45.1317   -0.8414    5.6942 C   0  0  0  0  0  0  0  0  0  0  0  0
   45.6014   -1.9036    4.9900 O   0  0  0  0  0  0  0  0  0  0  0  0
   46.1283   -3.0315    5.6594 C   0  0  0  0  0  0  0  0  0  0  0  0
   45.1270   -0.7751    7.0871 C   0  0  0  0  0  0  0  0  0  0  0  0
   44.6166    0.3523    7.7126 C   0  0  0  0  0  0  0  0  0  0  0  0
   44.1075    1.4143    6.9806 C   0  0  0  0  0  0  0  0  0  0  0  0
   44.1057    1.3464    5.5877 C   0  0  0  0  0  0  0  0  0  0  0  0
   43.6356    2.3349    4.7834 O   0  0  0  0  0  0  0  0  0  0  0  0
   43.0956    3.5163    5.3405 C   0  0  0  0  0  0  0  0  0  0  0  0
   40.1225   -0.2460    2.6261 H   0  0  0  0  0  0  0  0  0  0  0  0
   42.0229   -0.1385    4.5401 H   0  0  0  0  0  0  0  0  0  0  0  0
   47.2174    0.5448    4.5028 H   0  0  0  0  0  0  0  0  0  0  0  0
   49.1201    0.4031    2.5929 H   0  0  0  0  0  0  0  0  0  0  0  0
   49.1108   -0.6053   -2.5315 H   0  0  0  0  0  0  0  0  0  0  0  0
   47.2139   -0.6175   -4.4524 H   0  0  0  0  0  0  0  0  0  0  0  0
   42.1779   -3.1907   -6.0340 H   0  0  0  0  0  0  0  0  0  0  0  0
   42.7171   -4.0861   -4.5889 H   0  0  0  0  0  0  0  0  0  0  0  0
   43.7825   -3.9819   -6.0155 H   0  0  0  0  0  0  0  0  0  0  0  0
   43.7062   -2.1539   -7.5173 H   0  0  0  0  0  0  0  0  0  0  0  0
   44.6545   -0.2556   -8.7499 H   0  0  0  0  0  0  0  0  0  0  0  0
   45.5906    1.6806   -7.5674 H   0  0  0  0  0  0  0  0  0  0  0  0
   46.5394    3.7073   -4.6889 H   0  0  0  0  0  0  0  0  0  0  0  0
   45.4900    3.5548   -6.1230 H   0  0  0  0  0  0  0  0  0  0  0  0
   47.0983    2.7712   -6.1003 H   0  0  0  0  0  0  0  0  0  0  0  0
   42.0307    0.1506   -4.4860 H   0  0  0  0  0  0  0  0  0  0  0  0
   40.1256    0.1828   -2.5743 H   0  0  0  0  0  0  0  0  0  0  0  0
   45.3748   -3.5072    6.2986 H   0  0  0  0  0  0  0  0  0  0  0  0
   46.4314   -3.7326    4.8797 H   0  0  0  0  0  0  0  0  0  0  0  0
   47.0030   -2.7665    6.2655 H   0  0  0  0  0  0  0  0  0  0  0  0
   45.5155   -1.5895    7.6837 H   0  0  0  0  0  0  0  0  0  0  0  0
   44.6154    0.4044    8.7958 H   0  0  0  0  0  0  0  0  0  0  0  0
   43.7171    2.2819    7.4954 H   0  0  0  0  0  0  0  0  0  0  0  0
   43.8420    4.0580    5.9341 H   0  0  0  0  0  0  0  0  0  0  0  0
   42.2209    3.3018    5.9663 H   0  0  0  0  0  0  0  0  0  0  0  0
   42.7892    4.1371    4.4966 H   0  0  0  0  0  0  0  0  0  0  0  0
  2  3  4  0  0  0  0
  3  4  4  0  0  0  0
  4  5  2  0  0  0  0
  5  6  4  0  0  0  0
  1  7  1  0  0  0  0
  3  7  4  0  0  0  0
  6  7  4  0  0  0  0
  6  8  4  0  0  0  0
  8  9  4  0  0  0  0
  9 10  4  0  0  0  0
 10 11  2  0  0  0  0
  1 12  1  0  0  0  0
  9 12  4  0  0  0  0
 11 13  4  0  0  0  0
 12 13  4  0  0  0  0
 13 14  4  0  0  0  0
 14 15  4  0  0  0  0
 15 16  4  0  0  0  0
 16 17  2  0  0  0  0
 17 18  4  0  0  0  0
 18 19  4  0  0  0  0
 19 20  1  0  0  0  0
 20 21  4  0  0  0  0
 21 22  1  0  0  0  0
 22 23  1  0  0  0  0
 21 24  4  0  0  0  0
 24 25  4  0  0  0  0
 25 26  4  0  0  0  0
 20 27  4  0  0  0  0
 26 27  4  0  0  0  0
 27 28  1  0  0  0  0
 28 29  1  0  0  0  0
 19 30  4  0  0  0  0
 30 31  4  0  0  0  0
 31 32  2  0  0  0  0
  2 33  4  0  0  0  0
 32 33  4  0  0  0  0
  1 34  1  0  0  0  0
 30 34  4  0  0  0  0
 33 34  4  0  0  0  0
  1 35  1  0  0  0  0
 15 35  4  0  0  0  0
 18 35  4  0  0  0  0
  8 36  1  0  0  0  0
 36 37  4  0  0  0  0
 37 38  1  0  0  0  0
 38 39  1  0  0  0  0
 37 40  4  0  0  0  0
 40 41  4  0  0  0  0
 41 42  4  0  0  0  0
 36 43  4  0  0  0  0
 42 43  4  0  0  0  0
 43 44  1  0  0  0  0
 44 45  1  0  0  0  0
  2 46  1  0  0  0  0
  4 47  1  0  0  0  0
  5 48  1  0  0  0  0
 10 49  1  0  0  0  0
 11 50  1  0  0  0  0
 16 51  1  0  0  0  0
 17 52  1  0  0  0  0
 23 53  1  0  0  0  0
 23 54  1  0  0  0  0
 23 55  1  0  0  0  0
 24 56  1  0  0  0  0
 25 57  1  0  0  0  0
 26 58  1  0  0  0  0
 29 59  1  0  0  0  0
 29 60  1  0  0  0  0
 29 61  1  0  0  0  0
 31 62  1  0  0  0  0
 32 63  1  0  0  0  0
 39 64  1  0  0  0  0
 39 65  1  0  0  0  0
 39 66  1  0  0  0  0
 40 67  1  0  0  0  0
 41 68  1  0  0  0  0
 42 69  1  0  0  0  0
 45 70  1  0  0  0  0
 45 71  1  0  0  0  0
 45 72  1  0  0  0  0
 74 75  4  0  0  0  0
 75 76  4  0  0  0  0
 76 77  2  0  0  0  0
 77 78  4  0  0  0  0
 73 79  1  0  0  0  0
 75 79  4  0  0  0  0
 78 79  4  0  0  0  0
 78 80  4  0  0  0  0
 80 81  4  0  0  0  0
 81 82  4  0  0  0  0
 82 83  2  0  0  0  0
 73 84  1  0  0  0  0
 81 84  4  0  0  0  0
 83 85  4  0  0  0  0
 84 85  4  0  0  0  0
 85 86  4  0  0  0  0
 86 87  4  0  0  0  0
 87 88  4  0  0  0  0
 88 89  2  0  0  0  0
 89 90  4  0  0  0  0
 90 91  4  0  0  0  0
 91 92  1  0  0  0  0
 92 93  4  0  0  0  0
 93 94  1  0  0  0  0
 94 95  1  0  0  0  0
 93 96  4  0  0  0  0
 96 97  4  0  0  0  0
 97 98  4  0  0  0  0
 92 99  4  0  0  0  0
 98 99  4  0  0  0  0
 99100  1  0  0  0  0
100101  1  0  0  0  0
 91102  4  0  0  0  0
102103  4  0  0  0  0
103104  2  0  0  0  0
 74105  4  0  0  0  0
104105  4  0  0  0  0
 73106  1  0  0  0  0
102106  4  0  0  0  0
105106  4  0  0  0  0
 73107  1  0  0  0  0
 87107  4  0  0  0  0
 90107  4  0  0  0  0
 80108  1  0  0  0  0
108109  4  0  0  0  0
109110  1  0  0  0  0
110111  1  0  0  0  0
109112  4  0  0  0  0
112113  4  0  0  0  0
113114  4  0  0  0  0
108115  4  0  0  0  0
114115  4  0  0  0  0
115116  1  0  0  0  0
116117  1  0  0  0  0
 74118  1  0  0  0  0
 76119  1  0  0  0  0
 77120  1  0  0  0  0
 82121  1  0  0  0  0
 83122  1  0  0  0  0
 88123  1  0  0  0  0
 89124  1  0  0  0  0
 95125  1  0  0  0  0
 95126  1  0  0  0  0
 95127  1  0  0  0  0
 96128  1  0  0  0  0
 97129  1  0  0  0  0
 98130  1  0  0  0  0
101131  1  0  0  0  0
101132  1  0  0  0  0
101133  1  0  0  0  0
103134  1  0  0  0  0
104135  1  0  0  0  0
111136  1  0  0  0  0
111137  1  0  0  0  0
111138  1  0  0  0  0
112139  1  0  0  0  0
113140  1  0  0  0  0
114141  1  0  0  0  0
117142  1  0  0  0  0
117143  1  0  0  0  0
117144  1  0  0  0  0
145146  3  0  0  0  0
146147  4  0  0  0  0
 14148  4  0  0  0  0
147148  3  0  0  0  0
145149  4  0  0  0  0
149150  3  0  0  0  0
151152  3  0  0  0  0
152153  4  0  0  0  0
153154  3  0  0  0  0
151155  4  0  0  0  0
 86156  4  0  0  0  0
155156  3  0  0  0  0
150158  4  0  0  0  0
158159  4  0  0  0  0
159160  4  0  0  0  0
160161  2  0  0  0  0
161162  4  0  0  0  0
157163  1  0  0  0  0
159163  4  0  0  0  0
162163  4  0  0  0  0
162164  4  0  0  0  0
164165  4  0  0  0  0
165166  4  0  0  0  0
166167  2  0  0  0  0
157168  1  0  0  0  0
165168  4  0  0  0  0
167169  4  0  0  0  0
168169  4  0  0  0  0
154170  4  0  0  0  0
169170  4  0  0  0  0
170171  4  0  0  0  0
171172  4  0  0  0  0
172173  2  0  0  0  0
173174  4  0  0  0  0
174175  4  0  0  0  0
175176  1  0  0  0  0
176177  4  0  0  0  0
177178  1  0  0  0  0
178179  1  0  0  0  0
177180  4  0  0  0  0
180181  4  0  0  0  0
181182  4  0  0  0  0
176183  4  0  0  0  0
182183  4  0  0  0  0
183184  1  0  0  0  0
184185  1  0  0  0  0
175186  4  0  0  0  0
186187  4  0  0  0  0
187188  2  0  0  0  0
158189  4  0  0  0  0
188189  4  0  0  0  0
157190  1  0  0  0  0
186190  4  0  0  0  0
189190  4  0  0  0  0
157191  1  0  0  0  0
171191  4  0  0  0  0
174191  4  0  0  0  0
164192  1  0  0  0  0
192193  4  0  0  0  0
193194  1  0  0  0  0
194195  1  0  0  0  0
193196  4  0  0  0  0
196197  4  0  0  0  0
197198  4  0  0  0  0
192199  4  0  0  0  0
198199  4  0  0  0  0
199200  1  0  0  0  0
200201  1  0  0  0  0
160202  1  0  0  0  0
161203  1  0  0  0  0
166204  1  0  0  0  0
167205  1  0  0  0  0
172206  1  0  0  0  0
173207  1  0  0  0  0
179208  1  0  0  0  0
179209  1  0  0  0  0
179210  1  0  0  0  0
180211  1  0  0  0  0
181212  1  0  0  0  0
182213  1  0  0  0  0
185214  1  0  0  0  0
185215  1  0  0  0  0
185216  1  0  0  0  0
187217  1  0  0  0  0
188218  1  0  0  0  0
195219  1  0  0  0  0
195220  1  0  0  0  0
195221  1  0  0  0  0
196222  1  0  0  0  0
197223  1  0  0  0  0
198224  1  0  0  0  0
201225  1  0  0  0  0
201226  1  0  0  0  0
201227  1  0  0  0  0
M  END
