360

C 84.056905 -0.036082 0.085696
C 84.785124 1.339882 0.164448
C 84.177816 2.561542 0.342816
C 85.200436 3.544376 0.295744
C 86.397906 2.888619 0.080668
N 86.137161 1.541353 0.049303
C 87.820747 3.557422 -0.122282
C 87.860144 5.023397 -0.326012
C 88.164493 5.874706 0.743250
C 88.193426 7.258410 0.556223
C 87.916926 7.798234 -0.704431
C 87.947720 9.217989 -0.900320
N 87.971444 10.367473 -1.064607
C 87.610230 6.950826 -1.774904
C 87.582005 5.566855 -1.584217
C 88.951020 2.800937 -0.145765
C 90.254113 3.381831 -0.397852
C 91.157540 2.409213 -0.381693
N 89.149137 1.455441 0.022015
C 90.481099 1.156491 -0.107201
C 91.152465 -0.023162 -0.021879
C 90.379319 -1.371158 0.305044
C 90.933019 -2.522584 0.832249
C 89.905705 -3.495740 0.904860
C 88.752011 -2.909650 0.429298
N 89.037454 -1.601066 0.122825
C 87.338931 -3.612498 0.274780
C 87.306550 -5.088276 0.188038
C 86.964191 -5.858887 1.306321
C 86.942791 -7.252062 1.220966
C 87.268066 -7.883430 0.015324
C 87.244401 -9.313731 -0.074893
N 87.226207 -10.472721 -0.148613
C 87.614720 -7.116850 -1.103308
C 87.633068 -5.723814 -1.015117
C 86.211585 -2.859997 0.190423
C 84.888188 -3.438633 0.034934
C 84.000859 -2.448452 -0.002478
C 84.723158 -1.205694 0.110729
N 86.045555 -1.503413 0.220196
H 82.978058 -0.034637 -0.015323
H 83.119856 2.727470 0.475867
H 85.072161 4.612494 0.384599
H 86.836561 0.808742 -0.041119
H 88.383011 5.440878 1.717826
H 88.433244 7.900427 1.399345
H 87.394500 7.350959 -2.761244
H 87.346615 4.897689 -2.408642
H 90.467044 4.419399 -0.583543
H 92.210064 2.551788 -0.545552
H 91.966130 -2.656664 1.115049
H 90.003970 -4.513292 1.247081
H 88.349549 -0.905463 -0.156725
H 86.709718 -5.355150 2.236634
H 86.671406 -7.830926 2.099497
H 87.872933 -7.588067 -2.048110
H 87.896686 -5.115441 -1.879456
H 84.656652 -4.485489 -0.037940
H 82.935571 -2.548350 -0.109700
C 145.025898 0.019123 0.077877
C 144.297679 -1.280856 0.535623
C 144.904987 -2.404939 1.046219
C 143.882368 -3.362190 1.273921
C 142.684898 -2.791948 0.885207
N 142.945642 -1.506378 0.480953
C 141.262057 -3.490804 0.875958
C 141.222659 -4.955697 1.087328
C 140.918310 -5.476602 2.350936
C 140.889377 -6.857821 2.555506
C 141.165878 -7.726486 1.494335
C 141.135084 -9.144799 1.700402
N 141.111359 -10.294696 1.861776
C 141.472573 -7.209665 0.230647
C 141.500798 -5.827172 0.029519
C 140.131783 -2.770592 0.643331
C 138.828690 -3.398643 0.562467
C 137.925264 -2.459789 0.307904
N 139.933666 -1.431423 0.430882
C 138.601704 -1.180112 0.223733
C 137.930338 -0.023162 -0.021879
C 138.703484 1.362602 -0.082138
C 138.149785 2.615143 0.104592
C 139.177099 3.570189 -0.095888
C 140.330792 2.875091 -0.389995
N 140.045350 1.532868 -0.321034
C 141.743873 3.507388 -0.733610
C 141.776253 4.901037 -1.226749
C 142.118612 5.951877 -0.366437
C 142.140012 7.266557 -0.835306
C 141.814738 7.538299 -2.168856
C 141.838402 8.887296 -2.652706
N 141.856596 9.980232 -3.045366
C 141.468083 6.491235 -3.030622
C 141.449735 5.177476 -2.559067
C 142.871218 2.761057 -0.605688
C 144.194615 3.273758 -0.915743
C 145.081944 2.312131 -0.676720
C 144.359645 1.149687 -0.222864
N 143.037248 1.466094 -0.200376
H 146.104745 -0.010317 -0.018768
H 145.962947 -2.527394 1.220114
H 144.010642 -4.363625 1.655887
H 142.246242 -0.827690 0.190649
H 140.699792 -4.789206 3.166713
H 140.649559 -7.240462 3.543750
H 141.688303 -7.867958 -0.605788
H 141.736189 -5.413259 -0.948302
H 138.615760 -4.446968 0.672201
H 136.872739 -2.642259 0.190081
H 137.116673 2.822480 0.339037
H 139.078833 4.642753 -0.049690
H 140.733254 0.786994 -0.396428
H 142.373085 5.726290 0.667169
H 142.411397 8.066614 -0.152072
H 141.209870 6.681558 -4.069118
H 141.186117 4.353012 -3.220473
H 144.426151 4.259206 -1.276451
H 146.147232 2.378326 -0.807465
C 92.967734 -0.023162 -0.021879
C 94.189652 -0.023162 -0.021879
C 103.449089 -0.023162 -0.021879
C 104.671006 -0.023162 -0.021879
C 113.930443 -0.023162 -0.021879
C 115.152360 -0.023162 -0.021879
C 124.411797 -0.023162 -0.021879
C 125.633715 -0.023162 -0.021879
C 134.893151 -0.023162 -0.021879
C 136.115069 -0.023162 -0.021879
C 95.240304 0.012779 0.012071
C 96.035538 1.164510 -0.729665
C 95.534373 2.384877 -1.134426
C 96.572934 3.060603 -1.825144
C 97.676713 2.233747 -1.815119
N 97.362309 1.118316 -1.080362
C 99.063542 2.507477 -2.526366
C 99.051409 3.352862 -3.740730
C 98.574748 2.834026 -4.950166
C 98.548127 3.630710 -6.097006
C 98.997351 4.954865 -6.038526
C 98.971274 5.773951 -7.214499
N 98.949986 6.439932 -8.166530
C 99.471457 5.479375 -4.830686
C 99.495823 4.679982 -3.685945
C 100.199919 1.935218 -2.050026
C 101.485339 2.106397 -2.695650
C 102.394420 1.426337 -2.005396
N 100.409757 1.124196 -0.970069
C 101.733933 0.786640 -0.885697
C 102.398259 0.012779 0.012071
C 101.603042 -0.660653 1.205039
C 102.104294 -0.993876 2.446808
C 101.065738 -1.644080 3.161606
C 99.961857 -1.681907 2.335696
N 100.276208 -1.013210 1.179439
C 98.575032 -2.376035 2.650387
C 98.587351 -3.539480 3.564597
C 99.065655 -4.776392 3.116920
C 99.092484 -5.875313 3.978477
C 98.641848 -5.740948 5.296609
C 98.668088 -6.867716 6.182158
N 98.689452 -7.779838 6.901807
C 98.166153 -4.505289 5.750079
C 98.141610 -3.408598 4.885930
C 97.438626 -1.933753 2.051462
C 96.153255 -2.568492 2.259719
C 95.244165 -1.919009 1.540636
C 95.904601 -0.838308 0.837014
N 97.228734 -0.902705 1.179117
H 94.528779 2.741990 -0.971251
H 96.515037 4.031286 -2.293844
H 98.019845 0.395875 -0.801511
H 98.227318 1.802894 -4.984231
H 98.175442 3.206218 -7.025503
H 99.824918 6.505019 -4.766232
H 99.864173 5.075347 -2.740844
H 101.681105 2.675508 -3.586490
H 103.438517 1.368861 -2.253831
H 103.109936 -0.810390 2.793730
H 101.123679 -2.055679 4.157856
H 99.618595 -0.776569 0.442192
H 99.414214 -4.869584 2.089827
H 99.466440 -6.826403 3.608635
H 97.811580 -4.382097 6.769952
H 97.772064 -2.442590 5.225750
H 95.957537 -3.424840 2.879530
H 94.200113 -2.170532 1.497532
C 105.721658 0.012779 0.012071
C 106.516892 1.164510 -0.729665
C 106.015727 2.384877 -1.134426
C 107.054288 3.060603 -1.825144
C 108.158067 2.233747 -1.815119
N 107.843663 1.118316 -1.080362
C 109.544896 2.507477 -2.526366
C 109.532764 3.352862 -3.740730
C 109.056102 2.834026 -4.950166
C 109.029482 3.630710 -6.097006
C 109.478706 4.954865 -6.038526
C 109.452628 5.773951 -7.214499
N 109.431340 6.439932 -8.166530
C 109.952812 5.479375 -4.830686
C 109.977177 4.679982 -3.685945
C 110.681273 1.935218 -2.050026
C 111.966693 2.106397 -2.695650
C 112.875775 1.426337 -2.005396
N 110.891112 1.124196 -0.970069
C 112.215288 0.786640 -0.885697
C 112.879613 0.012779 0.012071
C 112.084396 -0.660653 1.205039
C 112.585648 -0.993876 2.446808
C 111.547093 -1.644080 3.161606
C 110.443212 -1.681907 2.335696
N 110.757562 -1.013210 1.179439
C 109.056387 -2.376035 2.650387
C 109.068706 -3.539480 3.564597
C 109.547009 -4.776392 3.116920
C 109.573838 -5.875313 3.978477
C 109.123203 -5.740948 5.296609
C 109.149442 -6.867716 6.182158
N 109.170806 -7.779838 6.901807
C 108.647507 -4.505289 5.750079
C 108.622964 -3.408598 4.885930
C 107.919980 -1.933753 2.051462
C 106.634609 -2.568492 2.259719
C 105.725519 -1.919009 1.540636
C 106.385955 -0.838308 0.837014
N 107.710088 -0.902705 1.179117
H 105.010133 2.741990 -0.971251
H 106.996391 4.031286 -2.293844
H 108.501200 0.395875 -0.801511
H 108.708672 1.802894 -4.984231
H 108.656797 3.206218 -7.025503
H 110.306273 6.505019 -4.766232
H 110.345527 5.075347 -2.740844
H 112.162460 2.675508 -3.586490
H 113.919871 1.368861 -2.253831
H 113.591290 -0.810390 2.793730
H 111.605034 -2.055679 4.157856
H 110.099949 -0.776569 0.442192
H 109.895569 -4.869584 2.089827
H 109.947794 -6.826403 3.608635
H 108.292934 -4.382097 6.769952
H 108.253418 -2.442590 5.225750
H 106.438891 -3.424840 2.879530
H 104.681467 -2.170532 1.497532
C 116.203013 0.012779 0.012071
C 116.998247 1.164510 -0.729665
C 116.497081 2.384877 -1.134426
C 117.535643 3.060603 -1.825144
C 118.639421 2.233747 -1.815119
N 118.325017 1.118316 -1.080362
C 120.026251 2.507477 -2.526366
C 120.014118 3.352862 -3.740730
C 119.537456 2.834026 -4.950166
C 119.510836 3.630710 -6.097006
C 119.960060 4.954865 -6.038526
C 119.933983 5.773951 -7.214499
N 119.912694 6.439932 -8.166530
C 120.434166 5.479375 -4.830686
C 120.458531 4.679982 -3.685945
C 121.162627 1.935218 -2.050026
C 122.448048 2.106397 -2.695650
C 123.357129 1.426337 -2.005396
N 121.372466 1.124196 -0.970069
C 122.696642 0.786640 -0.885697
C 123.360967 0.012779 0.012071
C 122.565750 -0.660653 1.205039
C 123.067002 -0.993876 2.446808
C 122.028447 -1.644080 3.161606
C 120.924566 -1.681907 2.335696
N 121.238916 -1.013210 1.179439
C 119.537741 -2.376035 2.650387
C 119.550060 -3.539480 3.564597
C 120.028363 -4.776392 3.116920
C 120.055192 -5.875313 3.978477
C 119.604557 -5.740948 5.296609
C 119.630797 -6.867716 6.182158
N 119.652161 -7.779838 6.901807
C 119.128861 -4.505289 5.750079
C 119.104319 -3.408598 4.885930
C 118.401334 -1.933753 2.051462
C 117.115964 -2.568492 2.259719
C 116.206873 -1.919009 1.540636
C 116.867309 -0.838308 0.837014
N 118.191443 -0.902705 1.179117
H 115.491488 2.741990 -0.971251
H 117.477745 4.031286 -2.293844
H 118.982554 0.395875 -0.801511
H 119.190027 1.802894 -4.984231
H 119.138151 3.206218 -7.025503
H 120.787627 6.505019 -4.766232
H 120.826881 5.075347 -2.740844
H 122.643814 2.675508 -3.586490
H 124.401225 1.368861 -2.253831
H 124.072645 -0.810390 2.793730
H 122.086388 -2.055679 4.157856
H 120.581304 -0.776569 0.442192
H 120.376923 -4.869584 2.089827
H 120.429148 -6.826403 3.608635
H 118.774289 -4.382097 6.769952
H 118.734772 -2.442590 5.225750
H 116.920246 -3.424840 2.879530
H 115.162822 -2.170532 1.497532
C 126.684367 0.012779 0.012071
C 127.479601 1.164510 -0.729665
C 126.978435 2.384877 -1.134426
C 128.016997 3.060603 -1.825144
C 129.120775 2.233747 -1.815119
N 128.806371 1.118316 -1.080362
C 130.507605 2.507477 -2.526366
C 130.495472 3.352862 -3.740730
C 130.018811 2.834026 -4.950166
C 129.992190 3.630710 -6.097006
C 130.441414 4.954865 -6.038526
C 130.415337 5.773951 -7.214499
N 130.394048 6.439932 -8.166530
C 130.915520 5.479375 -4.830686
C 130.939885 4.679982 -3.685945
C 131.643982 1.935218 -2.050026
C 132.929402 2.106397 -2.695650
C 133.838483 1.426337 -2.005396
N 131.853820 1.124196 -0.970069
C 133.177996 0.786640 -0.885697
C 133.842321 0.012779 0.012071
C 133.047105 -0.660653 1.205039
C 133.548356 -0.993876 2.446808
C 132.509801 -1.644080 3.161606
C 131.405920 -1.681907 2.335696
N 131.720271 -1.013210 1.179439
C 130.019095 -2.376035 2.650387
C 130.031414 -3.539480 3.564597
C 130.509717 -4.776392 3.116920
C 130.536547 -5.875313 3.978477
C 130.085911 -5.740948 5.296609
C 130.112151 -6.867716 6.182158
N 130.133515 -7.779838 6.901807
C 129.610215 -4.505289 5.750079
C 129.585673 -3.408598 4.885930
C 128.882688 -1.933753 2.051462
C 127.597318 -2.568492 2.259719
C 126.688228 -1.919009 1.540636
C 127.348664 -0.838308 0.837014
N 128.672797 -0.902705 1.179117
H 125.972842 2.741990 -0.971251
H 127.959099 4.031286 -2.293844
H 129.463908 0.395875 -0.801511
H 129.671381 1.802894 -4.984231
H 129.619505 3.206218 -7.025503
H 131.268981 6.505019 -4.766232
H 131.308236 5.075347 -2.740844
H 133.125168 2.675508 -3.586490
H 134.882580 1.368861 -2.253831
H 134.553999 -0.810390 2.793730
H 132.567742 -2.055679 4.157856
H 131.062658 -0.776569 0.442192
H 130.858277 -4.869584 2.089827
H 130.910503 -6.826403 3.608635
H 129.255643 -4.382097 6.769952
H 129.216126 -2.442590 5.225750
H 127.401600 -3.424840 2.879530
H 125.644176 -2.170532 1.497532
