189

Zn 35.246787 -0.052350 -0.023898
C 31.913647 0.098662 0.082511
C 32.580459 1.255608 0.061112
C 31.932088 2.561226 0.059908
C 32.875729 3.483297 0.051947
C 34.180875 2.808247 0.049879
N 34.000893 1.392021 0.054914
C 35.374825 3.433138 0.079796
C 35.412350 4.911842 0.087311
C 35.203010 5.627116 -1.099664
C 35.224664 7.025456 -1.096726
O 35.010388 7.706633 -2.295114
C 35.457729 7.721114 0.103426
O 35.473357 9.116647 0.099360
C 35.671504 7.005101 1.295518
O 35.904349 7.687799 2.488158
C 35.649027 5.603871 1.282125
C 36.673033 2.709033 0.118151
C 37.972306 3.378559 0.249575
C 38.906632 2.451390 0.234921
N 36.807656 1.421259 0.017566
C 38.213527 1.177488 0.083393
C 38.808736 -0.023221 -0.025004
C 38.055777 -1.288752 -0.205155
C 38.621066 -2.450693 -0.510282
C 37.573570 -3.449753 -0.540480
C 36.431881 -2.835586 -0.254424
N 36.645631 -1.438868 -0.028134
C 35.122770 -3.529300 -0.135955
C 35.103954 -5.008081 -0.154561
C 35.250584 -5.726084 1.038848
C 35.229300 -7.124545 1.029990
O 35.371029 -7.809830 2.236722
C 35.065973 -7.816512 -0.183995
O 35.049142 -9.211946 -0.185011
C 34.924069 -7.096731 -1.384539
O 34.766629 -7.776134 -2.591748
C 34.942242 -5.695419 -1.364525
C 33.960096 -2.864125 -0.013860
C 32.636166 -3.472296 0.104855
C 31.777156 -2.473652 0.156590
C 32.543266 -1.231021 0.076597
N 33.817999 -1.445774 -0.023848
H 30.830763 0.131447 0.107132
H 30.867461 2.756986 0.069021
H 32.692048 4.549946 0.058504
H 35.019279 5.096794 -2.026355
H 35.015361 8.718073 -2.348089
H 35.623730 9.656902 0.942366
H 36.060662 7.195474 3.360080
H 35.811753 5.053271 2.200784
H 38.155872 4.441119 0.339488
H 39.970420 2.634566 0.309676
H 39.670718 -2.635601 -0.692256
H 37.708464 -4.504519 -0.743423
H 35.377759 -5.198328 1.976297
H 35.352712 -8.820896 2.287089
H 34.935249 -9.750063 -1.035438
H 34.666791 -7.281835 -3.471166
H 34.831902 -5.141936 -2.289569
H 32.384274 -4.524455 0.139348
H 30.702157 -2.571456 0.240035
Zn 58.200204 0.005596 -0.020603
C 61.533343 -0.156504 0.068004
C 60.866531 -1.303569 -0.084393
C 61.514902 -2.600637 -0.233575
C 60.571262 -3.515863 -0.345997
C 59.266115 -2.844929 -0.271538
N 59.446097 -1.438400 -0.106013
C 58.072165 -3.469184 -0.312643
C 58.034641 -4.939210 -0.472781
C 58.243980 -5.515336 -1.733179
C 58.222326 -6.904997 -1.888755
O 58.436603 -7.445954 -3.156629
C 57.989262 -7.732205 -0.775188
O 57.973634 -9.118284 -0.937405
C 57.775487 -7.155924 0.490379
O 57.542641 -7.969403 1.597953
C 57.797963 -5.762206 0.635895
C 56.773958 -2.754093 -0.192460
C 55.474684 -3.434200 -0.137771
C 54.540358 -2.511345 -0.047240
N 56.639334 -1.463216 -0.146434
C 55.233463 -1.228477 -0.053401
C 54.638254 -0.023221 -0.025004
C 55.391213 1.254574 -0.060551
C 54.825924 2.443613 -0.232012
C 55.873420 3.439657 -0.148776
C 57.015110 2.797025 0.065824
N 56.801359 1.383659 0.132343
C 58.324220 3.472840 0.262159
C 58.343036 4.944200 0.411286
C 58.196406 5.522308 1.678386
C 58.217690 6.912762 1.828095
O 58.075962 7.456852 3.104724
C 58.381017 7.737869 0.700365
O 58.397848 9.124425 0.857521
C 58.522921 7.158803 -0.574027
O 58.680361 7.970660 -1.696449
C 58.504749 5.764252 -0.712974
C 59.486894 2.798113 0.308072
C 60.810824 3.388908 0.494956
C 61.669835 2.390837 0.433165
C 60.903724 1.165281 0.212841
N 59.628991 1.390034 0.137385
H 62.616227 -0.191868 0.088749
H 62.579529 -2.796168 -0.246709
H 60.754942 -4.576381 -0.460382
H 58.427712 -4.883396 -2.593788
H 58.431629 -8.444870 -3.323905
H 57.823260 -9.750608 -0.161067
H 57.386328 -7.579079 2.520058
H 57.635237 -5.319281 1.611042
H 55.291118 -4.500104 -0.168874
H 53.476570 -2.701814 0.006271
H 53.776272 2.647955 -0.391854
H 55.738527 4.510628 -0.230858
H 58.069231 4.891698 2.549975
H 58.094278 8.455694 3.269366
H 58.511741 9.755467 0.073568
H 58.780200 7.579224 -2.626226
H 58.615088 5.319186 -1.694792
H 61.062716 4.430377 0.648484
H 62.744833 2.478552 0.527158
C 40.767671 -0.023221 -0.025004
C 41.989588 -0.023221 -0.025004
C 51.457402 -0.023221 -0.025004
C 52.679320 -0.023221 -0.025004
Zn 46.684582 -0.036148 -0.044260
C 43.274951 0.048725 0.052467
C 43.931418 1.217362 0.172037
C 43.289828 2.516419 0.384468
C 44.227887 3.442831 0.406718
C 45.526700 2.791338 0.209419
N 45.348768 1.379730 0.068000
C 46.711654 3.435562 0.157383
C 46.741374 4.911225 0.260655
C 47.203870 5.524182 1.434086
C 47.246505 6.921336 1.532876
O 47.699444 7.531915 2.702800
C 46.831501 7.712172 0.452033
O 46.884021 9.101565 0.567791
C 46.369116 7.101180 -0.729063
O 45.957654 7.884215 -1.806495
C 46.325005 5.703079 -0.819376
C 48.012714 2.737123 0.004142
C 49.286093 3.428834 -0.230923
C 50.239869 2.520015 -0.260403
N 48.178834 1.455262 0.110030
C 49.581224 1.237720 -0.048503
C 50.196270 0.048725 0.052467
C 49.447322 -1.210116 0.250856
C 49.985502 -2.341686 0.687227
C 48.953041 -3.358642 0.628106
C 47.854797 -2.778858 0.157409
N 48.076480 -1.393612 -0.102203
C 46.596100 -3.497281 -0.154810
C 46.658026 -4.962155 -0.377747
C 47.392802 -5.476217 -1.453094
C 47.464176 -6.854885 -1.668491
O 48.195415 -7.325038 -2.759971
C 46.805467 -7.743604 -0.796643
O 46.899727 -9.114653 -1.049976
C 46.073286 -7.227138 0.301017
O 45.401547 -8.044431 1.213623
C 46.009199 -5.843209 0.498464
C 45.419787 -2.848812 -0.258413
C 44.138365 -3.450716 -0.612115
C 43.249106 -2.480398 -0.554125
C 43.951177 -1.251149 -0.169162
N 45.220289 -1.459138 0.003283
H 42.233427 2.715085 0.509381
H 44.043027 4.498774 0.554646
H 47.529113 4.916540 2.270442
H 47.990201 6.987462 3.511003
H 46.591411 9.716555 -0.185400
H 45.597814 7.469995 -2.658820
H 45.971284 5.233115 -1.730755
H 49.437590 4.493056 -0.356540
H 51.293265 2.718022 -0.410021
H 51.010559 -2.493078 0.999852
H 49.070332 -4.403491 0.885029
H 47.906109 -4.803651 -2.130993
H 48.278373 -8.312676 -2.970671
H 46.449667 -9.828153 -0.492873
H 45.392630 -9.052907 1.170935
H 45.452925 -5.452407 1.342657
H 43.931155 -4.478521 -0.878864
H 42.194205 -2.594605 -0.767587
