 xtb: 6.5.1 (b24c23e)
          07302205103D

258297  0     0  0            999 V2000
   47.5469    0.1720   -0.5500 Ni  0  0  0  0  0  0  0  0  0  0  0  0
   44.1577    0.1993   -0.5782 C   0  0  0  0  0  0  0  0  0  0  0  0
   44.8163    1.4100   -0.5226 C   0  0  0  0  0  0  0  0  0  0  0  0
   44.1502    2.6766   -0.5030 C   0  0  0  0  0  0  0  0  0  0  0  0
   45.1058    3.6149   -0.3071 C   0  0  0  0  0  0  0  0  0  0  0  0
   46.3554    2.9194   -0.2009 C   0  0  0  0  0  0  0  0  0  0  0  0
   46.1719    1.5712   -0.3776 N   0  0  0  0  0  0  0  0  0  0  0  0
   47.5666    3.5340    0.0917 C   0  0  0  0  0  0  0  0  0  0  0  0
   47.5747    4.9895    0.3721 C   0  0  0  0  0  0  0  0  0  0  0  0
   46.8455    5.5095    1.4376 C   0  0  0  0  0  0  0  0  0  0  0  0
   46.8508    6.8796    1.6961 C   0  0  0  0  0  0  0  0  0  0  0  0
   46.0513    7.3735    2.8457 C   0  0  0  0  0  0  0  0  0  0  0  0
   46.1289    8.7004    3.0213 O   0  0  0  0  0  0  0  0  0  0  0  0
   45.3875    6.6706    3.5638 O   0  0  0  0  0  0  0  0  0  0  0  0
   47.5881    7.7417    0.8846 C   0  0  0  0  0  0  0  0  0  0  0  0
   48.3136    7.2265   -0.1781 C   0  0  0  0  0  0  0  0  0  0  0  0
   48.3092    5.8627   -0.4341 C   0  0  0  0  0  0  0  0  0  0  0  0
   48.7712    2.8429    0.1132 C   0  0  0  0  0  0  0  0  0  0  0  0
   50.0312    3.4403    0.4374 C   0  0  0  0  0  0  0  0  0  0  0  0
   50.9801    2.5003    0.2088 C   0  0  0  0  0  0  0  0  0  0  0  0
   48.9439    1.5269   -0.2518 N   0  0  0  0  0  0  0  0  0  0  0  0
   50.2967    1.3273   -0.2345 C   0  0  0  0  0  0  0  0  0  0  0  0
   50.9539    0.1708   -0.6649 C   0  0  0  0  0  0  0  0  0  0  0  0
   50.2700   -0.9984   -1.0083 C   0  0  0  0  0  0  0  0  0  0  0  0
   50.9247   -2.1943   -1.4337 C   0  0  0  0  0  0  0  0  0  0  0  0
   49.9679   -3.1492   -1.5268 C   0  0  0  0  0  0  0  0  0  0  0  0
   48.7300   -2.5318   -1.1581 C   0  0  0  0  0  0  0  0  0  0  0  0
   48.9226   -1.1981   -0.8796 N   0  0  0  0  0  0  0  0  0  0  0  0
   47.5228   -3.2120   -1.0614 C   0  0  0  0  0  0  0  0  0  0  0  0
   47.5173   -4.6805   -1.2662 C   0  0  0  0  0  0  0  0  0  0  0  0
   48.2511   -5.5147   -0.4199 C   0  0  0  0  0  0  0  0  0  0  0  0
   48.2443   -6.8904   -0.6040 C   0  0  0  0  0  0  0  0  0  0  0  0
   47.5088   -7.4496   -1.6355 C   0  0  0  0  0  0  0  0  0  0  0  0
   46.7744   -6.6260   -2.4901 C   0  0  0  0  0  0  0  0  0  0  0  0
   45.9996   -7.2630   -3.5845 C   0  0  0  0  0  0  0  0  0  0  0  0
   45.3239   -6.3881   -4.3438 O   0  0  0  0  0  0  0  0  0  0  0  0
   45.9636   -8.4491   -3.7902 O   0  0  0  0  0  0  0  0  0  0  0  0
   46.7792   -5.2451   -2.3042 C   0  0  0  0  0  0  0  0  0  0  0  0
   46.3193   -2.5696   -0.7994 C   0  0  0  0  0  0  0  0  0  0  0  0
   45.0568   -3.2406   -0.6879 C   0  0  0  0  0  0  0  0  0  0  0  0
   44.1107   -2.2792   -0.5743 C   0  0  0  0  0  0  0  0  0  0  0  0
   44.7966   -1.0235   -0.5937 C   0  0  0  0  0  0  0  0  0  0  0  0
   46.1524   -1.2113   -0.6942 N   0  0  0  0  0  0  0  0  0  0  0  0
   43.0742    0.2086   -0.5951 H   0  0  0  0  0  0  0  0  0  0  0  0
   43.0866    2.8095   -0.6202 H   0  0  0  0  0  0  0  0  0  0  0  0
   44.9884    4.6843   -0.2423 H   0  0  0  0  0  0  0  0  0  0  0  0
   46.2768    4.8529    2.0870 H   0  0  0  0  0  0  0  0  0  0  0  0
   45.5825    8.9429    3.7865 H   0  0  0  0  0  0  0  0  0  0  0  0
   47.5895    8.8060    1.0860 H   0  0  0  0  0  0  0  0  0  0  0  0
   48.8858    7.8912   -0.8154 H   0  0  0  0  0  0  0  0  0  0  0  0
   48.8671    5.4683   -1.2760 H   0  0  0  0  0  0  0  0  0  0  0  0
   50.1633    4.4481    0.7958 H   0  0  0  0  0  0  0  0  0  0  0  0
   52.0486    2.5783    0.3285 H   0  0  0  0  0  0  0  0  0  0  0  0
   51.9825   -2.2787   -1.6240 H   0  0  0  0  0  0  0  0  0  0  0  0
   50.0790   -4.1789   -1.8252 H   0  0  0  0  0  0  0  0  0  0  0  0
   48.8177   -5.0794    0.3956 H   0  0  0  0  0  0  0  0  0  0  0  0
   48.8148   -7.5259    0.0636 H   0  0  0  0  0  0  0  0  0  0  0  0
   47.4922   -8.5221   -1.7932 H   0  0  0  0  0  0  0  0  0  0  0  0
   44.8472   -6.8809   -5.0313 H   0  0  0  0  0  0  0  0  0  0  0  0
   46.2198   -4.6068   -2.9778 H   0  0  0  0  0  0  0  0  0  0  0  0
   44.9241   -4.3102   -0.6977 H   0  0  0  0  0  0  0  0  0  0  0  0
   43.0422   -2.3905   -0.4808 H   0  0  0  0  0  0  0  0  0  0  0  0
   87.7553    0.2564   -0.2957 Ni  0  0  0  0  0  0  0  0  0  0  0  0
   91.1238    0.1396    0.0628 C   0  0  0  0  0  0  0  0  0  0  0  0
   90.4840   -0.9873   -0.4108 C   0  0  0  0  0  0  0  0  0  0  0  0
   91.1673   -2.1790   -0.8116 C   0  0  0  0  0  0  0  0  0  0  0  0
   90.2149   -3.0712   -1.1702 C   0  0  0  0  0  0  0  0  0  0  0  0
   88.9479   -2.4339   -0.9571 C   0  0  0  0  0  0  0  0  0  0  0  0
   89.1259   -1.1402   -0.5340 N   0  0  0  0  0  0  0  0  0  0  0  0
   87.7221   -3.0753   -1.0802 C   0  0  0  0  0  0  0  0  0  0  0  0
   87.6979   -4.5081   -1.4601 C   0  0  0  0  0  0  0  0  0  0  0  0
   88.3232   -5.4664   -0.6676 C   0  0  0  0  0  0  0  0  0  0  0  0
   88.2992   -6.8116   -1.0337 C   0  0  0  0  0  0  0  0  0  0  0  0
   88.9878   -7.7853   -0.1491 C   0  0  0  0  0  0  0  0  0  0  0  0
   88.9107   -9.0513   -0.5838 O   0  0  0  0  0  0  0  0  0  0  0  0
   89.5694   -7.4905    0.8634 O   0  0  0  0  0  0  0  0  0  0  0  0
   87.6454   -7.2075   -2.2004 C   0  0  0  0  0  0  0  0  0  0  0  0
   87.0193   -6.2555   -2.9896 C   0  0  0  0  0  0  0  0  0  0  0  0
   87.0429   -4.9170   -2.6244 C   0  0  0  0  0  0  0  0  0  0  0  0
   86.5134   -2.4354   -0.8358 C   0  0  0  0  0  0  0  0  0  0  0  0
   85.2468   -3.1025   -0.8236 C   0  0  0  0  0  0  0  0  0  0  0  0
   84.3060   -2.1525   -0.6042 C   0  0  0  0  0  0  0  0  0  0  0  0
   86.3508   -1.0910   -0.5932 N   0  0  0  0  0  0  0  0  0  0  0  0
   84.9987   -0.9088   -0.4895 C   0  0  0  0  0  0  0  0  0  0  0  0
   84.3480    0.3251   -0.4047 C   0  0  0  0  0  0  0  0  0  0  0  0
   85.0403    1.5376   -0.3349 C   0  0  0  0  0  0  0  0  0  0  0  0
   84.3958    2.8115   -0.3705 C   0  0  0  0  0  0  0  0  0  0  0  0
   85.3687    3.7438   -0.2288 C   0  0  0  0  0  0  0  0  0  0  0  0
   86.6029    3.0336   -0.0797 C   0  0  0  0  0  0  0  0  0  0  0  0
   86.3927    1.6773   -0.1899 N   0  0  0  0  0  0  0  0  0  0  0  0
   87.8159    3.6398    0.2182 C   0  0  0  0  0  0  0  0  0  0  0  0
   87.8559    5.1107    0.4017 C   0  0  0  0  0  0  0  0  0  0  0  0
   87.1116    5.7252    1.4110 C   0  0  0  0  0  0  0  0  0  0  0  0
   87.1540    7.1021    1.5813 C   0  0  0  0  0  0  0  0  0  0  0  0
   87.9370    7.8817    0.7465 C   0  0  0  0  0  0  0  0  0  0  0  0
   88.6860    7.2790   -0.2653 C   0  0  0  0  0  0  0  0  0  0  0  0
   89.5128    8.1483   -1.1399 C   0  0  0  0  0  0  0  0  0  0  0  0
   90.1937    7.4737   -2.0777 O   0  0  0  0  0  0  0  0  0  0  0  0
   89.5844    9.3459   -1.0348 O   0  0  0  0  0  0  0  0  0  0  0  0
   88.6461    5.8966   -0.4344 C   0  0  0  0  0  0  0  0  0  0  0  0
   88.9951    2.9215    0.3739 C   0  0  0  0  0  0  0  0  0  0  0  0
   90.2362    3.5015    0.7971 C   0  0  0  0  0  0  0  0  0  0  0  0
   91.1582    2.5107    0.7796 C   0  0  0  0  0  0  0  0  0  0  0  0
   90.4818    1.3284    0.3403 C   0  0  0  0  0  0  0  0  0  0  0  0
   89.1487    1.5805    0.1299 N   0  0  0  0  0  0  0  0  0  0  0  0
   92.1988    0.0984    0.1931 H   0  0  0  0  0  0  0  0  0  0  0  0
   92.2393   -2.2951   -0.8199 H   0  0  0  0  0  0  0  0  0  0  0  0
   90.3463   -4.0741   -1.5424 H   0  0  0  0  0  0  0  0  0  0  0  0
   88.8224   -5.1799    0.2516 H   0  0  0  0  0  0  0  0  0  0  0  0
   89.3836   -9.6227    0.0429 H   0  0  0  0  0  0  0  0  0  0  0  0
   87.6292   -8.2529   -2.4838 H   0  0  0  0  0  0  0  0  0  0  0  0
   86.5102   -6.5560   -3.8984 H   0  0  0  0  0  0  0  0  0  0  0  0
   86.5617   -4.1756   -3.2525 H   0  0  0  0  0  0  0  0  0  0  0  0
   85.1068   -4.1632   -0.9539 H   0  0  0  0  0  0  0  0  0  0  0  0
   83.2364   -2.2666   -0.5322 H   0  0  0  0  0  0  0  0  0  0  0  0
   83.3352    2.9580   -0.4962 H   0  0  0  0  0  0  0  0  0  0  0  0
   85.2686    4.8168   -0.2242 H   0  0  0  0  0  0  0  0  0  0  0  0
   86.5092    5.1153    2.0750 H   0  0  0  0  0  0  0  0  0  0  0  0
   86.5737    7.5650    2.3713 H   0  0  0  0  0  0  0  0  0  0  0  0
   87.9806    8.9585    0.8652 H   0  0  0  0  0  0  0  0  0  0  0  0
   90.7055    8.1090   -2.6042 H   0  0  0  0  0  0  0  0  0  0  0  0
   89.2199    5.4313   -1.2271 H   0  0  0  0  0  0  0  0  0  0  0  0
   90.3691    4.5336    1.0782 H   0  0  0  0  0  0  0  0  0  0  0  0
   92.2064    2.5584    1.0282 H   0  0  0  0  0  0  0  0  0  0  0  0
   53.5757    0.2170   -0.8210 C   0  0  0  0  0  0  0  0  0  0  0  0
   52.3570    0.1857   -0.7436 C   0  0  0  0  0  0  0  0  0  0  0  0
   54.9221    0.2589   -0.9144 C   0  0  0  0  0  0  0  0  0  0  0  0
   56.1394    0.3085   -1.0047 C   0  0  0  0  0  0  0  0  0  0  0  0
   66.9738    0.4317   -1.0302 C   0  0  0  0  0  0  0  0  0  0  0  0
   65.7533    0.4268   -1.0829 C   0  0  0  0  0  0  0  0  0  0  0  0
   68.3232    0.4393   -0.9949 C   0  0  0  0  0  0  0  0  0  0  0  0
   69.5447    0.4597   -0.9874 C   0  0  0  0  0  0  0  0  0  0  0  0
   80.3753    0.4066   -0.5677 C   0  0  0  0  0  0  0  0  0  0  0  0
   79.1571    0.4365   -0.6544 C   0  0  0  0  0  0  0  0  0  0  0  0
   81.7232    0.3812   -0.4929 C   0  0  0  0  0  0  0  0  0  0  0  0
   82.9433    0.3522   -0.4412 C   0  0  0  0  0  0  0  0  0  0  0  0
   60.9430    0.4697   -1.2963 Ni  0  0  0  0  0  0  0  0  0  0  0  0
   57.5390    0.3672   -1.1115 C   0  0  0  0  0  0  0  0  0  0  0  0
   58.2044   -0.6507   -1.8020 C   0  0  0  0  0  0  0  0  0  0  0  0
   57.5300   -1.6984   -2.4993 C   0  0  0  0  0  0  0  0  0  0  0  0
   58.4897   -2.5162   -2.9959 C   0  0  0  0  0  0  0  0  0  0  0  0
   59.7476   -1.9818   -2.5706 C   0  0  0  0  0  0  0  0  0  0  0  0
   59.5602   -0.8060   -1.8787 N   0  0  0  0  0  0  0  0  0  0  0  0
   60.9659   -2.6257   -2.7411 C   0  0  0  0  0  0  0  0  0  0  0  0
   60.9893   -3.9497   -3.4077 C   0  0  0  0  0  0  0  0  0  0  0  0
   60.2872   -5.0274   -2.8759 C   0  0  0  0  0  0  0  0  0  0  0  0
   60.3158   -6.2702   -3.5074 C   0  0  0  0  0  0  0  0  0  0  0  0
   59.5476   -7.3812   -2.8904 C   0  0  0  0  0  0  0  0  0  0  0  0
   59.6490   -8.5385   -3.5594 O   0  0  0  0  0  0  0  0  0  0  0  0
   58.8878   -7.2765   -1.8884 O   0  0  0  0  0  0  0  0  0  0  0  0
   61.0489   -6.4414   -4.6814 C   0  0  0  0  0  0  0  0  0  0  0  0
   61.7501   -5.3699   -5.2120 C   0  0  0  0  0  0  0  0  0  0  0  0
   61.7244   -4.1342   -4.5812 C   0  0  0  0  0  0  0  0  0  0  0  0
   62.1658   -2.0990   -2.2793 C   0  0  0  0  0  0  0  0  0  0  0  0
   63.4104   -2.8048   -2.3027 C   0  0  0  0  0  0  0  0  0  0  0  0
   64.3515   -1.9549   -1.8244 C   0  0  0  0  0  0  0  0  0  0  0  0
   62.3387   -0.8364   -1.7619 N   0  0  0  0  0  0  0  0  0  0  0  0
   63.6812   -0.7310   -1.5209 C   0  0  0  0  0  0  0  0  0  0  0  0
   64.3508    0.4418   -1.1602 C   0  0  0  0  0  0  0  0  0  0  0  0
   63.6801    1.6477   -0.9321 C   0  0  0  0  0  0  0  0  0  0  0  0
   64.3493    2.8905   -0.7167 C   0  0  0  0  0  0  0  0  0  0  0  0
   63.3867    3.8161   -0.4858 C   0  0  0  0  0  0  0  0  0  0  0  0
   62.1330    3.1269   -0.5288 C   0  0  0  0  0  0  0  0  0  0  0  0
   62.3246    1.8020   -0.8522 N   0  0  0  0  0  0  0  0  0  0  0  0
   60.9166    3.6995   -0.1834 C   0  0  0  0  0  0  0  0  0  0  0  0
   60.8919    5.1158    0.2551 C   0  0  0  0  0  0  0  0  0  0  0  0
   60.1467    6.0582   -0.4570 C   0  0  0  0  0  0  0  0  0  0  0  0
   60.1227    7.3875   -0.0587 C   0  0  0  0  0  0  0  0  0  0  0  0
   60.8369    7.7909    1.0571 C   0  0  0  0  0  0  0  0  0  0  0  0
   61.5801    6.8570    1.7806 C   0  0  0  0  0  0  0  0  0  0  0  0
   62.3281    7.3286    2.9735 C   0  0  0  0  0  0  0  0  0  0  0  0
   63.0157    6.3591    3.5938 O   0  0  0  0  0  0  0  0  0  0  0  0
   62.3340    8.4678    3.3640 O   0  0  0  0  0  0  0  0  0  0  0  0
   61.6073    5.5231    1.3790 C   0  0  0  0  0  0  0  0  0  0  0  0
   59.7214    2.9911   -0.1964 C   0  0  0  0  0  0  0  0  0  0  0  0
   58.4820    3.5061    0.2996 C   0  0  0  0  0  0  0  0  0  0  0  0
   57.5441    2.5541    0.0733 C   0  0  0  0  0  0  0  0  0  0  0  0
   58.2105    1.4674   -0.5702 C   0  0  0  0  0  0  0  0  0  0  0  0
   59.5489    1.7217   -0.6971 N   0  0  0  0  0  0  0  0  0  0  0  0
   56.4594   -1.7793   -2.5963 H   0  0  0  0  0  0  0  0  0  0  0  0
   58.3650   -3.4051   -3.5922 H   0  0  0  0  0  0  0  0  0  0  0  0
   59.7244   -4.9174   -1.9554 H   0  0  0  0  0  0  0  0  0  0  0  0
   59.1226   -9.2101   -3.0959 H   0  0  0  0  0  0  0  0  0  0  0  0
   61.0678   -7.4071   -5.1719 H   0  0  0  0  0  0  0  0  0  0  0  0
   62.3211   -5.4957   -6.1250 H   0  0  0  0  0  0  0  0  0  0  0  0
   62.2671   -3.2972   -5.0062 H   0  0  0  0  0  0  0  0  0  0  0  0
   63.5359   -3.8236   -2.6313 H   0  0  0  0  0  0  0  0  0  0  0  0
   65.4083   -2.1231   -1.6941 H   0  0  0  0  0  0  0  0  0  0  0  0
   65.4184    3.0246   -0.7510 H   0  0  0  0  0  0  0  0  0  0  0  0
   63.5071    4.8705   -0.2981 H   0  0  0  0  0  0  0  0  0  0  0  0
   59.5954    5.7450   -1.3366 H   0  0  0  0  0  0  0  0  0  0  0  0
   59.5446    8.1091   -0.6245 H   0  0  0  0  0  0  0  0  0  0  0  0
   60.8293    8.8251    1.3822 H   0  0  0  0  0  0  0  0  0  0  0  0
   63.4719    6.7460    4.3588 H   0  0  0  0  0  0  0  0  0  0  0  0
   62.1730    4.7975    1.9513 H   0  0  0  0  0  0  0  0  0  0  0  0
   58.3583    4.4674    0.7710 H   0  0  0  0  0  0  0  0  0  0  0  0
   56.4913    2.5767    0.3040 H   0  0  0  0  0  0  0  0  0  0  0  0
   74.3578    0.5201   -1.0208 Ni  0  0  0  0  0  0  0  0  0  0  0  0
   70.9490    0.4817   -1.0029 C   0  0  0  0  0  0  0  0  0  0  0  0
   71.6292   -0.5733   -1.6197 C   0  0  0  0  0  0  0  0  0  0  0  0
   70.9728   -1.6368   -2.3105 C   0  0  0  0  0  0  0  0  0  0  0  0
   71.9404   -2.4971   -2.7105 C   0  0  0  0  0  0  0  0  0  0  0  0
   73.1833   -1.9702   -2.2348 C   0  0  0  0  0  0  0  0  0  0  0  0
   72.9831   -0.7599   -1.6090 N   0  0  0  0  0  0  0  0  0  0  0  0
   74.3941   -2.6459   -2.2994 C   0  0  0  0  0  0  0  0  0  0  0  0
   74.4295   -4.0002   -2.9007 C   0  0  0  0  0  0  0  0  0  0  0  0
   73.6730   -5.0392   -2.3668 C   0  0  0  0  0  0  0  0  0  0  0  0
   73.7160   -6.3104   -2.9383 C   0  0  0  0  0  0  0  0  0  0  0  0
   72.8899   -7.3785   -2.3205 C   0  0  0  0  0  0  0  0  0  0  0  0
   73.0158   -8.5693   -2.9237 O   0  0  0  0  0  0  0  0  0  0  0  0
   72.1670   -7.2150   -1.3714 O   0  0  0  0  0  0  0  0  0  0  0  0
   74.5170   -6.5488   -4.0547 C   0  0  0  0  0  0  0  0  0  0  0  0
   75.2713   -5.5155   -4.5883 C   0  0  0  0  0  0  0  0  0  0  0  0
   75.2321   -4.2519   -4.0164 C   0  0  0  0  0  0  0  0  0  0  0  0
   75.5773   -2.1165   -1.7981 C   0  0  0  0  0  0  0  0  0  0  0  0
   76.8071   -2.8428   -1.7134 C   0  0  0  0  0  0  0  0  0  0  0  0
   77.7419   -1.9769   -1.2507 C   0  0  0  0  0  0  0  0  0  0  0  0
   75.7498   -0.8260   -1.3554 N   0  0  0  0  0  0  0  0  0  0  0  0
   77.0827   -0.7241   -1.0638 C   0  0  0  0  0  0  0  0  0  0  0  0
   77.7577    0.4651   -0.7726 C   0  0  0  0  0  0  0  0  0  0  0  0
   77.0946    1.6904   -0.6483 C   0  0  0  0  0  0  0  0  0  0  0  0
   77.7684    2.9392   -0.4912 C   0  0  0  0  0  0  0  0  0  0  0  0
   76.8084    3.8810   -0.3216 C   0  0  0  0  0  0  0  0  0  0  0  0
   75.5510    3.1978   -0.3457 C   0  0  0  0  0  0  0  0  0  0  0  0
   75.7387    1.8577   -0.6006 N   0  0  0  0  0  0  0  0  0  0  0  0
   74.3334    3.7905   -0.0376 C   0  0  0  0  0  0  0  0  0  0  0  0
   74.3114    5.2196    0.3552 C   0  0  0  0  0  0  0  0  0  0  0  0
   73.5616    6.1406   -0.3803 C   0  0  0  0  0  0  0  0  0  0  0  0
   73.5359    7.4804   -0.0191 C   0  0  0  0  0  0  0  0  0  0  0  0
   74.2541    7.9168    1.0816 C   0  0  0  0  0  0  0  0  0  0  0  0
   75.0038    7.0055    1.8269 C   0  0  0  0  0  0  0  0  0  0  0  0
   75.7579    7.5116    3.0016 C   0  0  0  0  0  0  0  0  0  0  0  0
   76.4486    6.5602    3.6463 O   0  0  0  0  0  0  0  0  0  0  0  0
   75.7641    8.6611    3.3604 O   0  0  0  0  0  0  0  0  0  0  0  0
   75.0317    5.6607    1.4632 C   0  0  0  0  0  0  0  0  0  0  0  0
   73.1328    3.0908   -0.0521 C   0  0  0  0  0  0  0  0  0  0  0  0
   71.8840    3.6311    0.3911 C   0  0  0  0  0  0  0  0  0  0  0  0
   70.9405    2.6897    0.1445 C   0  0  0  0  0  0  0  0  0  0  0  0
   71.6143    1.5811   -0.4523 C   0  0  0  0  0  0  0  0  0  0  0  0
   72.9604    1.8121   -0.5291 N   0  0  0  0  0  0  0  0  0  0  0  0
   69.9081   -1.7000   -2.4673 H   0  0  0  0  0  0  0  0  0  0  0  0
   71.8301   -3.4104   -3.2719 H   0  0  0  0  0  0  0  0  0  0  0  0
   73.0560   -4.8766   -1.4898 H   0  0  0  0  0  0  0  0  0  0  0  0
   72.4489   -9.2094   -2.4633 H   0  0  0  0  0  0  0  0  0  0  0  0
   74.5469   -7.5364   -4.4988 H   0  0  0  0  0  0  0  0  0  0  0  0
   75.8948   -5.6934   -5.4572 H   0  0  0  0  0  0  0  0  0  0  0  0
   75.8172   -3.4452   -4.4435 H   0  0  0  0  0  0  0  0  0  0  0  0
   76.9274   -3.8837   -1.9656 H   0  0  0  0  0  0  0  0  0  0  0  0
   78.7883   -2.1532   -1.0606 H   0  0  0  0  0  0  0  0  0  0  0  0
   78.8388    3.0651   -0.5165 H   0  0  0  0  0  0  0  0  0  0  0  0
   76.9330    4.9432   -0.1883 H   0  0  0  0  0  0  0  0  0  0  0  0
   73.0076    5.8023   -1.2488 H   0  0  0  0  0  0  0  0  0  0  0  0
   72.9528    8.1842   -0.6020 H   0  0  0  0  0  0  0  0  0  0  0  0
   74.2449    8.9596    1.3779 H   0  0  0  0  0  0  0  0  0  0  0  0
   76.9075    6.9683    4.3984 H   0  0  0  0  0  0  0  0  0  0  0  0
   75.6011    4.9528    2.0537 H   0  0  0  0  0  0  0  0  0  0  0  0
   71.7568    4.6018    0.8420 H   0  0  0  0  0  0  0  0  0  0  0  0
   69.8802    2.7317    0.3346 H   0  0  0  0  0  0  0  0  0  0  0  0
  2  3  4  0  0  0  0
  3  4  4  0  0  0  0
  4  5  2  0  0  0  0
  5  6  4  0  0  0  0
  1  7  1  0  0  0  0
  3  7  4  0  0  0  0
  6  7  4  0  0  0  0
  6  8  4  0  0  0  0
  8  9  1  0  0  0  0
  9 10  4  0  0  0  0
 10 11  4  0  0  0  0
 11 12  1  0  0  0  0
 12 13  4  0  0  0  0
 12 14  2  0  0  0  0
 11 15  4  0  0  0  0
 15 16  4  0  0  0  0
  9 17  4  0  0  0  0
 16 17  4  0  0  0  0
  8 18  4  0  0  0  0
 18 19  4  0  0  0  0
 19 20  2  0  0  0  0
  1 21  1  0  0  0  0
 18 21  4  0  0  0  0
 20 22  4  0  0  0  0
 21 22  4  0  0  0  0
 22 23  4  0  0  0  0
 23 24  4  0  0  0  0
 24 25  4  0  0  0  0
 25 26  2  0  0  0  0
 26 27  4  0  0  0  0
  1 28  1  0  0  0  0
 24 28  4  0  0  0  0
 27 28  4  0  0  0  0
 27 29  4  0  0  0  0
 29 30  1  0  0  0  0
 30 31  4  0  0  0  0
 31 32  4  0  0  0  0
 32 33  4  0  0  0  0
 33 34  4  0  0  0  0
 34 35  1  0  0  0  0
 35 36  4  0  0  0  0
 35 37  2  0  0  0  0
 30 38  4  0  0  0  0
 34 38  4  0  0  0  0
 29 39  4  0  0  0  0
 39 40  4  0  0  0  0
 40 41  2  0  0  0  0
  2 42  4  0  0  0  0
 41 42  4  0  0  0  0
  1 43  1  0  0  0  0
 39 43  4  0  0  0  0
 42 43  4  0  0  0  0
  2 44  1  0  0  0  0
  4 45  1  0  0  0  0
  5 46  1  0  0  0  0
 10 47  1  0  0  0  0
 13 48  1  0  0  0  0
 15 49  1  0  0  0  0
 16 50  1  0  0  0  0
 17 51  1  0  0  0  0
 19 52  1  0  0  0  0
 20 53  1  0  0  0  0
 25 54  1  0  0  0  0
 26 55  1  0  0  0  0
 31 56  1  0  0  0  0
 32 57  1  0  0  0  0
 33 58  1  0  0  0  0
 36 59  1  0  0  0  0
 38 60  1  0  0  0  0
 40 61  1  0  0  0  0
 41 62  1  0  0  0  0
 64 65  4  0  0  0  0
 65 66  4  0  0  0  0
 66 67  2  0  0  0  0
 67 68  4  0  0  0  0
 63 69  1  0  0  0  0
 65 69  4  0  0  0  0
 68 69  4  0  0  0  0
 68 70  4  0  0  0  0
 70 71  1  0  0  0  0
 71 72  4  0  0  0  0
 72 73  4  0  0  0  0
 73 74  1  0  0  0  0
 74 75  4  0  0  0  0
 74 76  2  0  0  0  0
 73 77  4  0  0  0  0
 77 78  4  0  0  0  0
 71 79  4  0  0  0  0
 78 79  4  0  0  0  0
 70 80  4  0  0  0  0
 80 81  4  0  0  0  0
 81 82  2  0  0  0  0
 63 83  1  0  0  0  0
 80 83  4  0  0  0  0
 82 84  4  0  0  0  0
 83 84  4  0  0  0  0
 84 85  4  0  0  0  0
 85 86  4  0  0  0  0
 86 87  4  0  0  0  0
 87 88  2  0  0  0  0
 88 89  4  0  0  0  0
 63 90  1  0  0  0  0
 86 90  4  0  0  0  0
 89 90  4  0  0  0  0
 89 91  4  0  0  0  0
 91 92  1  0  0  0  0
 92 93  4  0  0  0  0
 93 94  4  0  0  0  0
 94 95  4  0  0  0  0
 95 96  4  0  0  0  0
 96 97  1  0  0  0  0
 97 98  4  0  0  0  0
 97 99  2  0  0  0  0
 92100  4  0  0  0  0
 96100  4  0  0  0  0
 91101  4  0  0  0  0
101102  4  0  0  0  0
102103  2  0  0  0  0
 64104  4  0  0  0  0
103104  4  0  0  0  0
 63105  1  0  0  0  0
101105  4  0  0  0  0
104105  4  0  0  0  0
 64106  1  0  0  0  0
 66107  1  0  0  0  0
 67108  1  0  0  0  0
 72109  1  0  0  0  0
 75110  1  0  0  0  0
 77111  1  0  0  0  0
 78112  1  0  0  0  0
 79113  1  0  0  0  0
 81114  1  0  0  0  0
 82115  1  0  0  0  0
 87116  1  0  0  0  0
 88117  1  0  0  0  0
 93118  1  0  0  0  0
 94119  1  0  0  0  0
 95120  1  0  0  0  0
 98121  1  0  0  0  0
100122  1  0  0  0  0
102123  1  0  0  0  0
103124  1  0  0  0  0
 23126  4  0  0  0  0
125126  3  0  0  0  0
125127  4  0  0  0  0
127128  3  0  0  0  0
129130  3  0  0  0  0
129131  4  0  0  0  0
131132  3  0  0  0  0
133134  3  0  0  0  0
133135  4  0  0  0  0
 85136  4  0  0  0  0
135136  3  0  0  0  0
128138  4  0  0  0  0
138139  4  0  0  0  0
139140  4  0  0  0  0
140141  2  0  0  0  0
141142  4  0  0  0  0
137143  1  0  0  0  0
139143  4  0  0  0  0
142143  4  0  0  0  0
142144  4  0  0  0  0
144145  1  0  0  0  0
145146  4  0  0  0  0
146147  4  0  0  0  0
147148  1  0  0  0  0
148149  4  0  0  0  0
148150  2  0  0  0  0
147151  4  0  0  0  0
151152  4  0  0  0  0
145153  4  0  0  0  0
152153  4  0  0  0  0
144154  4  0  0  0  0
154155  4  0  0  0  0
155156  2  0  0  0  0
137157  1  0  0  0  0
154157  4  0  0  0  0
156158  4  0  0  0  0
157158  4  0  0  0  0
130159  4  0  0  0  0
158159  4  0  0  0  0
159160  4  0  0  0  0
160161  4  0  0  0  0
161162  2  0  0  0  0
162163  4  0  0  0  0
137164  1  0  0  0  0
160164  4  0  0  0  0
163164  4  0  0  0  0
163165  4  0  0  0  0
165166  1  0  0  0  0
166167  4  0  0  0  0
167168  4  0  0  0  0
168169  4  0  0  0  0
169170  4  0  0  0  0
170171  1  0  0  0  0
171172  4  0  0  0  0
171173  2  0  0  0  0
166174  4  0  0  0  0
170174  4  0  0  0  0
165175  4  0  0  0  0
175176  4  0  0  0  0
176177  2  0  0  0  0
138178  4  0  0  0  0
177178  4  0  0  0  0
137179  1  0  0  0  0
175179  4  0  0  0  0
178179  4  0  0  0  0
140180  1  0  0  0  0
141181  1  0  0  0  0
146182  1  0  0  0  0
149183  1  0  0  0  0
151184  1  0  0  0  0
152185  1  0  0  0  0
153186  1  0  0  0  0
155187  1  0  0  0  0
156188  1  0  0  0  0
161189  1  0  0  0  0
162190  1  0  0  0  0
167191  1  0  0  0  0
168192  1  0  0  0  0
169193  1  0  0  0  0
172194  1  0  0  0  0
174195  1  0  0  0  0
176196  1  0  0  0  0
177197  1  0  0  0  0
132199  4  0  0  0  0
199200  4  0  0  0  0
200201  4  0  0  0  0
201202  2  0  0  0  0
202203  4  0  0  0  0
198204  1  0  0  0  0
200204  4  0  0  0  0
203204  4  0  0  0  0
203205  4  0  0  0  0
205206  1  0  0  0  0
206207  4  0  0  0  0
207208  4  0  0  0  0
208209  1  0  0  0  0
209210  4  0  0  0  0
209211  2  0  0  0  0
208212  4  0  0  0  0
212213  4  0  0  0  0
206214  4  0  0  0  0
213214  4  0  0  0  0
205215  4  0  0  0  0
215216  4  0  0  0  0
216217  2  0  0  0  0
198218  1  0  0  0  0
215218  4  0  0  0  0
217219  4  0  0  0  0
218219  4  0  0  0  0
134220  4  0  0  0  0
219220  4  0  0  0  0
220221  4  0  0  0  0
221222  4  0  0  0  0
222223  2  0  0  0  0
223224  4  0  0  0  0
198225  1  0  0  0  0
221225  4  0  0  0  0
224225  4  0  0  0  0
224226  4  0  0  0  0
226227  1  0  0  0  0
227228  4  0  0  0  0
228229  4  0  0  0  0
229230  4  0  0  0  0
230231  4  0  0  0  0
231232  1  0  0  0  0
232233  4  0  0  0  0
232234  2  0  0  0  0
227235  4  0  0  0  0
231235  4  0  0  0  0
226236  4  0  0  0  0
236237  4  0  0  0  0
237238  2  0  0  0  0
199239  4  0  0  0  0
238239  4  0  0  0  0
198240  1  0  0  0  0
236240  4  0  0  0  0
239240  4  0  0  0  0
201241  1  0  0  0  0
202242  1  0  0  0  0
207243  1  0  0  0  0
210244  1  0  0  0  0
212245  1  0  0  0  0
213246  1  0  0  0  0
214247  1  0  0  0  0
216248  1  0  0  0  0
217249  1  0  0  0  0
222250  1  0  0  0  0
223251  1  0  0  0  0
228252  1  0  0  0  0
229253  1  0  0  0  0
230254  1  0  0  0  0
233255  1  0  0  0  0
235256  1  0  0  0  0
237257  1  0  0  0  0
238258  1  0  0  0  0
M  END
