 xtb: 6.5.1 (b24c23e)
          07302200483D

195224  0     0  0            999 V2000
   26.6111    0.0254    0.0368 Co  0  0  0  0  0  0  0  0  0  0  0  0
   23.2443    0.1111    0.1379 C   0  0  0  0  0  0  0  0  0  0  0  0
   23.9019    1.0489   -0.6299 C   0  0  0  0  0  0  0  0  0  0  0  0
   23.2462    2.0387   -1.4282 C   0  0  0  0  0  0  0  0  0  0  0  0
   24.2089    2.8859   -1.8645 C   0  0  0  0  0  0  0  0  0  0  0  0
   25.4496    2.4223   -1.3161 C   0  0  0  0  0  0  0  0  0  0  0  0
   25.2591    1.2545   -0.6232 N   0  0  0  0  0  0  0  0  0  0  0  0
   26.6443    3.1321   -1.3662 C   0  0  0  0  0  0  0  0  0  0  0  0
   26.6624    4.4792   -1.9740 C   0  0  0  0  0  0  0  0  0  0  0  0
   27.5312    4.7716   -3.0292 C   0  0  0  0  0  0  0  0  0  0  0  0
   27.5535    6.0300   -3.6026 C   0  0  0  0  0  0  0  0  0  0  0  0
   26.7136    7.0365   -3.1180 C   0  0  0  0  0  0  0  0  0  0  0  0
   26.7073    8.2854   -3.7122 N   0  0  0  0  0  0  0  0  0  0  0  0
   25.8390    6.7516   -2.0657 C   0  0  0  0  0  0  0  0  0  0  0  0
   25.8152    5.4872   -1.5056 C   0  0  0  0  0  0  0  0  0  0  0  0
   27.8217    2.6073   -0.8509 C   0  0  0  0  0  0  0  0  0  0  0  0
   29.0662    3.3133   -0.7990 C   0  0  0  0  0  0  0  0  0  0  0  0
   30.0101    2.4165   -0.4211 C   0  0  0  0  0  0  0  0  0  0  0  0
   27.9932    1.3073   -0.4331 N   0  0  0  0  0  0  0  0  0  0  0  0
   29.3379    1.1708   -0.2331 C   0  0  0  0  0  0  0  0  0  0  0  0
   29.9988   -0.0441   -0.0266 C   0  0  0  0  0  0  0  0  0  0  0  0
   29.2981   -1.2343    0.1921 C   0  0  0  0  0  0  0  0  0  0  0  0
   29.9257   -2.5085    0.3389 C   0  0  0  0  0  0  0  0  0  0  0  0
   28.9582   -3.3749    0.7279 C   0  0  0  0  0  0  0  0  0  0  0  0
   27.7456   -2.6208    0.8337 C   0  0  0  0  0  0  0  0  0  0  0  0
   27.9559   -1.3212    0.4311 N   0  0  0  0  0  0  0  0  0  0  0  0
   26.5690   -3.1031    1.3898 C   0  0  0  0  0  0  0  0  0  0  0  0
   26.5468   -4.4633    1.9678 C   0  0  0  0  0  0  0  0  0  0  0  0
   27.4435   -4.8250    2.9771 C   0  0  0  0  0  0  0  0  0  0  0  0
   27.4240   -6.0963    3.5217 C   0  0  0  0  0  0  0  0  0  0  0  0
   26.5122   -7.0463    3.0533 C   0  0  0  0  0  0  0  0  0  0  0  0
   26.4652   -8.3069    3.6204 N   0  0  0  0  0  0  0  0  0  0  0  0
   25.6090   -6.6915    2.0474 C   0  0  0  0  0  0  0  0  0  0  0  0
   25.6276   -5.4145    1.5164 C   0  0  0  0  0  0  0  0  0  0  0  0
   25.4098   -2.3349    1.4173 C   0  0  0  0  0  0  0  0  0  0  0  0
   24.1829   -2.7434    2.0355 C   0  0  0  0  0  0  0  0  0  0  0  0
   23.2429   -1.8350    1.6803 C   0  0  0  0  0  0  0  0  0  0  0  0
   23.8991   -0.8668    0.8563 C   0  0  0  0  0  0  0  0  0  0  0  0
   25.2398   -1.1458    0.7570 N   0  0  0  0  0  0  0  0  0  0  0  0
   22.1616    0.1406    0.1741 H   0  0  0  0  0  0  0  0  0  0  0  0
   22.1844    2.0680   -1.6153 H   0  0  0  0  0  0  0  0  0  0  0  0
   24.1010    3.7507   -2.4991 H   0  0  0  0  0  0  0  0  0  0  0  0
   28.1793    3.9935   -3.4173 H   0  0  0  0  0  0  0  0  0  0  0  0
   28.2234    6.2407   -4.4290 H   0  0  0  0  0  0  0  0  0  0  0  0
   27.5489    8.5261   -4.2109 H   0  0  0  0  0  0  0  0  0  0  0  0
   26.3452    9.0303   -3.1387 H   0  0  0  0  0  0  0  0  0  0  0  0
   25.1832    7.5280   -1.6871 H   0  0  0  0  0  0  0  0  0  0  0  0
   25.1486    5.2810   -0.6753 H   0  0  0  0  0  0  0  0  0  0  0  0
   29.1913    4.3604   -1.0220 H   0  0  0  0  0  0  0  0  0  0  0  0
   31.0689    2.5678   -0.2854 H   0  0  0  0  0  0  0  0  0  0  0  0
   30.9730   -2.6986    0.1674 H   0  0  0  0  0  0  0  0  0  0  0  0
   29.0481   -4.4302    0.9279 H   0  0  0  0  0  0  0  0  0  0  0  0
   28.1471   -4.0908    3.3539 H   0  0  0  0  0  0  0  0  0  0  0  0
   28.1165   -6.3608    4.3133 H   0  0  0  0  0  0  0  0  0  0  0  0
   27.3133   -8.6029    4.0764 H   0  0  0  0  0  0  0  0  0  0  0  0
   26.0393   -9.0181    3.0481 H   0  0  0  0  0  0  0  0  0  0  0  0
   24.8969   -7.4234    1.6820 H   0  0  0  0  0  0  0  0  0  0  0  0
   24.9367   -5.1536    0.7223 H   0  0  0  0  0  0  0  0  0  0  0  0
   24.0683   -3.6150    2.6594 H   0  0  0  0  0  0  0  0  0  0  0  0
   22.1955   -1.8106    1.9365 H   0  0  0  0  0  0  0  0  0  0  0  0
   63.6417   -0.0081    0.0447 Co  0  0  0  0  0  0  0  0  0  0  0  0
   67.0102    0.0268    0.1779 C   0  0  0  0  0  0  0  0  0  0  0  0
   66.3508   -1.1281    0.5418 C   0  0  0  0  0  0  0  0  0  0  0  0
   67.0067   -2.3373    0.9351 C   0  0  0  0  0  0  0  0  0  0  0  0
   66.0430   -3.1688    1.3981 C   0  0  0  0  0  0  0  0  0  0  0  0
   64.8014   -2.4587    1.3037 C   0  0  0  0  0  0  0  0  0  0  0  0
   64.9930   -1.2368    0.7112 N   0  0  0  0  0  0  0  0  0  0  0  0
   63.6038   -2.8976    1.8564 C   0  0  0  0  0  0  0  0  0  0  0  0
   63.5858   -4.1496    2.6427 C   0  0  0  0  0  0  0  0  0  0  0  0
   62.7341   -5.2002    2.2902 C   0  0  0  0  0  0  0  0  0  0  0  0
   62.7152   -6.3743    3.0211 C   0  0  0  0  0  0  0  0  0  0  0  0
   63.5410   -6.5178    4.1394 C   0  0  0  0  0  0  0  0  0  0  0  0
   63.5522   -7.7042    4.8508 N   0  0  0  0  0  0  0  0  0  0  0  0
   64.3978   -5.4732    4.4971 C   0  0  0  0  0  0  0  0  0  0  0  0
   64.4185   -4.3068    3.7540 C   0  0  0  0  0  0  0  0  0  0  0  0
   62.4248   -2.1831    1.6949 C   0  0  0  0  0  0  0  0  0  0  0  0
   61.1771   -2.5395    2.2999 C   0  0  0  0  0  0  0  0  0  0  0  0
   60.2348   -1.7265    1.7629 C   0  0  0  0  0  0  0  0  0  0  0  0
   62.2564   -1.1097    0.8500 N   0  0  0  0  0  0  0  0  0  0  0  0
   60.9108   -0.8704    0.8413 C   0  0  0  0  0  0  0  0  0  0  0  0
   60.2523   -0.0150   -0.0463 C   0  0  0  0  0  0  0  0  0  0  0  0
   60.9534    0.8343   -0.9069 C   0  0  0  0  0  0  0  0  0  0  0  0
   60.3249    1.6725   -1.8773 C   0  0  0  0  0  0  0  0  0  0  0  0
   61.2938    2.4739   -2.3834 C   0  0  0  0  0  0  0  0  0  0  0  0
   62.5085    2.1329   -1.7063 C   0  0  0  0  0  0  0  0  0  0  0  0
   62.2972    1.0751   -0.8510 N   0  0  0  0  0  0  0  0  0  0  0  0
   63.6889    2.8554   -1.8074 C   0  0  0  0  0  0  0  0  0  0  0  0
   63.7121    4.0913   -2.6188 C   0  0  0  0  0  0  0  0  0  0  0  0
   62.8328    5.1419   -2.3430 C   0  0  0  0  0  0  0  0  0  0  0  0
   62.8526    6.3007   -3.0980 C   0  0  0  0  0  0  0  0  0  0  0  0
   63.7467    6.4277   -4.1645 C   0  0  0  0  0  0  0  0  0  0  0  0
   63.7944    7.5992   -4.8988 N   0  0  0  0  0  0  0  0  0  0  0  0
   64.6324    5.3835   -4.4444 C   0  0  0  0  0  0  0  0  0  0  0  0
   64.6141    4.2329   -3.6768 C   0  0  0  0  0  0  0  0  0  0  0  0
   64.8495    2.4461   -1.1607 C   0  0  0  0  0  0  0  0  0  0  0  0
   66.0802    3.1809   -1.1687 C   0  0  0  0  0  0  0  0  0  0  0  0
   67.0184    2.3811   -0.6078 C   0  0  0  0  0  0  0  0  0  0  0  0
   66.3577    1.1641   -0.2479 C   0  0  0  0  0  0  0  0  0  0  0  0
   65.0163    1.2398   -0.5309 N   0  0  0  0  0  0  0  0  0  0  0  0
   68.0928    0.0392    0.2233 H   0  0  0  0  0  0  0  0  0  0  0  0
   68.0693   -2.5077    0.8630 H   0  0  0  0  0  0  0  0  0  0  0  0
   66.1508   -4.1735    1.7738 H   0  0  0  0  0  0  0  0  0  0  0  0
   62.0970   -5.1006    1.4182 H   0  0  0  0  0  0  0  0  0  0  0  0
   62.0590   -7.1872    2.7299 H   0  0  0  0  0  0  0  0  0  0  0  0
   62.7185   -8.2629    4.7633 H   0  0  0  0  0  0  0  0  0  0  0  0
   63.8996   -7.6339    5.7938 H   0  0  0  0  0  0  0  0  0  0  0  0
   65.0427   -5.5796    5.3626 H   0  0  0  0  0  0  0  0  0  0  0  0
   65.0716   -3.4933    4.0507 H   0  0  0  0  0  0  0  0  0  0  0  0
   61.0491   -3.3122    3.0405 H   0  0  0  0  0  0  0  0  0  0  0  0
   59.1746   -1.7013    1.9575 H   0  0  0  0  0  0  0  0  0  0  0  0
   59.2759    1.6422   -2.1248 H   0  0  0  0  0  0  0  0  0  0  0  0
   61.2040    3.2307   -3.1457 H   0  0  0  0  0  0  0  0  0  0  0  0
   62.1424    5.0552   -1.5110 H   0  0  0  0  0  0  0  0  0  0  0  0
   62.1738    7.1141   -2.8661 H   0  0  0  0  0  0  0  0  0  0  0  0
   62.9525    8.1521   -4.8761 H   0  0  0  0  0  0  0  0  0  0  0  0
   64.2006    7.5122   -5.8166 H   0  0  0  0  0  0  0  0  0  0  0  0
   65.3308    5.4776   -5.2689 H   0  0  0  0  0  0  0  0  0  0  0  0
   65.2918    3.4197   -3.9125 H   0  0  0  0  0  0  0  0  0  0  0  0
   66.1978    4.1799   -1.5564 H   0  0  0  0  0  0  0  0  0  0  0  0
   68.0674    2.5765   -0.4509 H   0  0  0  0  0  0  0  0  0  0  0  0
   31.3993   -0.0684   -0.0433 C   0  0  0  0  0  0  0  0  0  0  0  0
   32.6248   -0.0837   -0.0560 C   0  0  0  0  0  0  0  0  0  0  0  0
   33.9654   -0.0943   -0.0672 C   0  0  0  0  0  0  0  0  0  0  0  0
   35.1974   -0.1003   -0.0769 C   0  0  0  0  0  0  0  0  0  0  0  0
   36.5331   -0.1021   -0.0833 C   0  0  0  0  0  0  0  0  0  0  0  0
   37.7652   -0.0989   -0.0840 C   0  0  0  0  0  0  0  0  0  0  0  0
   39.1056   -0.0933   -0.0812 C   0  0  0  0  0  0  0  0  0  0  0  0
   40.3315   -0.0841   -0.0710 C   0  0  0  0  0  0  0  0  0  0  0  0
   49.9183   -0.0331   -0.0876 C   0  0  0  0  0  0  0  0  0  0  0  0
   51.1437   -0.0332   -0.1061 C   0  0  0  0  0  0  0  0  0  0  0  0
   52.4848   -0.0305   -0.1206 C   0  0  0  0  0  0  0  0  0  0  0  0
   53.7164   -0.0256   -0.1254 C   0  0  0  0  0  0  0  0  0  0  0  0
   55.0529   -0.0215   -0.1232 C   0  0  0  0  0  0  0  0  0  0  0  0
   56.2845   -0.0152   -0.1159 C   0  0  0  0  0  0  0  0  0  0  0  0
   57.6258   -0.0148   -0.0970 C   0  0  0  0  0  0  0  0  0  0  0  0
   58.8508   -0.0135   -0.0781 C   0  0  0  0  0  0  0  0  0  0  0  0
   45.1251   -0.0459   -0.0266 Co  0  0  0  0  0  0  0  0  0  0  0  0
   41.7316   -0.0719   -0.0561 C   0  0  0  0  0  0  0  0  0  0  0  0
   42.4096    0.9978   -0.6499 C   0  0  0  0  0  0  0  0  0  0  0  0
   41.7453    2.0944   -1.2786 C   0  0  0  0  0  0  0  0  0  0  0  0
   42.6911    3.0358   -1.5150 C   0  0  0  0  0  0  0  0  0  0  0  0
   43.9329    2.5030   -1.0431 C   0  0  0  0  0  0  0  0  0  0  0  0
   43.7518    1.2307   -0.5512 N   0  0  0  0  0  0  0  0  0  0  0  0
   45.1045    3.2398   -0.9282 C   0  0  0  0  0  0  0  0  0  0  0  0
   45.0960    4.6706   -1.3107 C   0  0  0  0  0  0  0  0  0  0  0  0
   44.8480    5.0559   -2.6300 C   0  0  0  0  0  0  0  0  0  0  0  0
   44.8469    6.3921   -2.9889 C   0  0  0  0  0  0  0  0  0  0  0  0
   45.0920    7.3769   -2.0281 C   0  0  0  0  0  0  0  0  0  0  0  0
   45.0442    8.7156   -2.3731 N   0  0  0  0  0  0  0  0  0  0  0  0
   45.3282    6.9988   -0.7036 C   0  0  0  0  0  0  0  0  0  0  0  0
   45.3375    5.6600   -0.3549 C   0  0  0  0  0  0  0  0  0  0  0  0
   46.2887    2.6736   -0.4750 C   0  0  0  0  0  0  0  0  0  0  0  0
   47.5324    3.3786   -0.3990 C   0  0  0  0  0  0  0  0  0  0  0  0
   48.4948    2.4522   -0.1708 C   0  0  0  0  0  0  0  0  0  0  0  0
   46.4849    1.3312   -0.2440 N   0  0  0  0  0  0  0  0  0  0  0  0
   47.8363    1.1869   -0.1080 C   0  0  0  0  0  0  0  0  0  0  0  0
   48.5176   -0.0332   -0.0543 C   0  0  0  0  0  0  0  0  0  0  0  0
   47.8404   -1.2522    0.0486 C   0  0  0  0  0  0  0  0  0  0  0  0
   48.4960   -2.5197    0.0842 C   0  0  0  0  0  0  0  0  0  0  0  0
   47.5474   -3.4374    0.3959 C   0  0  0  0  0  0  0  0  0  0  0  0
   46.3188   -2.7220    0.5572 C   0  0  0  0  0  0  0  0  0  0  0  0
   46.5006   -1.3883    0.2785 N   0  0  0  0  0  0  0  0  0  0  0  0
   45.1424   -3.2849    1.0383 C   0  0  0  0  0  0  0  0  0  0  0  0
   45.1564   -4.6883    1.4998 C   0  0  0  0  0  0  0  0  0  0  0  0
   44.2873   -5.6327    0.9457 C   0  0  0  0  0  0  0  0  0  0  0  0
   44.3062   -6.9490    1.3694 C   0  0  0  0  0  0  0  0  0  0  0  0
   45.1971   -7.3521    2.3682 C   0  0  0  0  0  0  0  0  0  0  0  0
   45.1854   -8.6554    2.8287 N   0  0  0  0  0  0  0  0  0  0  0  0
   46.0596   -6.4110    2.9376 C   0  0  0  0  0  0  0  0  0  0  0  0
   46.0430   -5.0996    2.4993 C   0  0  0  0  0  0  0  0  0  0  0  0
   43.9553   -2.5659    1.0835 C   0  0  0  0  0  0  0  0  0  0  0  0
   42.7215   -3.0780    1.5977 C   0  0  0  0  0  0  0  0  0  0  0  0
   41.7593   -2.1816    1.2682 C   0  0  0  0  0  0  0  0  0  0  0  0
   42.4127   -1.1180    0.5753 C   0  0  0  0  0  0  0  0  0  0  0  0
   43.7612   -1.3246    0.5215 N   0  0  0  0  0  0  0  0  0  0  0  0
   40.6874    2.1347   -1.4822 H   0  0  0  0  0  0  0  0  0  0  0  0
   42.5628    4.0139   -1.9488 H   0  0  0  0  0  0  0  0  0  0  0  0
   44.6766    4.2967   -3.3852 H   0  0  0  0  0  0  0  0  0  0  0  0
   44.6602    6.6797   -4.0178 H   0  0  0  0  0  0  0  0  0  0  0  0
   45.1969    8.9114   -3.3495 H   0  0  0  0  0  0  0  0  0  0  0  0
   45.5370    9.3355   -1.7504 H   0  0  0  0  0  0  0  0  0  0  0  0
   45.5054    7.7592    0.0491 H   0  0  0  0  0  0  0  0  0  0  0  0
   45.5135    5.3743    0.6763 H   0  0  0  0  0  0  0  0  0  0  0  0
   47.6492    4.4413   -0.5351 H   0  0  0  0  0  0  0  0  0  0  0  0
   49.5587    2.5949   -0.0706 H   0  0  0  0  0  0  0  0  0  0  0  0
   49.5474   -2.6714   -0.0999 H   0  0  0  0  0  0  0  0  0  0  0  0
   47.6601   -4.5038    0.5043 H   0  0  0  0  0  0  0  0  0  0  0  0
   43.6081   -5.3334    0.1551 H   0  0  0  0  0  0  0  0  0  0  0  0
   43.6336   -7.6743    0.9248 H   0  0  0  0  0  0  0  0  0  0  0  0
   46.0308   -8.9574    3.2856 H   0  0  0  0  0  0  0  0  0  0  0  0
   44.7990   -9.3330    2.1914 H   0  0  0  0  0  0  0  0  0  0  0  0
   46.7426   -6.7145    3.7235 H   0  0  0  0  0  0  0  0  0  0  0  0
   46.7087   -4.3735    2.9531 H   0  0  0  0  0  0  0  0  0  0  0  0
   42.6143   -4.0043    2.1382 H   0  0  0  0  0  0  0  0  0  0  0  0
   40.7006   -2.2238    1.4676 H   0  0  0  0  0  0  0  0  0  0  0  0
  2  3  4  0  0  0  0
  3  4  4  0  0  0  0
  4  5  2  0  0  0  0
  5  6  4  0  0  0  0
  1  7  1  0  0  0  0
  3  7  4  0  0  0  0
  6  7  4  0  0  0  0
  6  8  4  0  0  0  0
  8  9  1  0  0  0  0
  9 10  4  0  0  0  0
 10 11  4  0  0  0  0
 11 12  4  0  0  0  0
 12 13  1  0  0  0  0
 12 14  4  0  0  0  0
  9 15  4  0  0  0  0
 14 15  4  0  0  0  0
  8 16  4  0  0  0  0
 16 17  4  0  0  0  0
 17 18  2  0  0  0  0
  1 19  1  0  0  0  0
 16 19  4  0  0  0  0
 18 20  4  0  0  0  0
 19 20  4  0  0  0  0
 20 21  4  0  0  0  0
 21 22  4  0  0  0  0
 22 23  4  0  0  0  0
 23 24  2  0  0  0  0
 24 25  4  0  0  0  0
  1 26  1  0  0  0  0
 22 26  4  0  0  0  0
 25 26  4  0  0  0  0
 25 27  4  0  0  0  0
 27 28  1  0  0  0  0
 28 29  4  0  0  0  0
 29 30  4  0  0  0  0
 30 31  4  0  0  0  0
 31 32  1  0  0  0  0
 31 33  4  0  0  0  0
 28 34  4  0  0  0  0
 33 34  4  0  0  0  0
 27 35  4  0  0  0  0
 35 36  4  0  0  0  0
 36 37  2  0  0  0  0
  2 38  4  0  0  0  0
 37 38  4  0  0  0  0
  1 39  1  0  0  0  0
 35 39  4  0  0  0  0
 38 39  4  0  0  0  0
  2 40  1  0  0  0  0
  4 41  1  0  0  0  0
  5 42  1  0  0  0  0
 10 43  1  0  0  0  0
 11 44  1  0  0  0  0
 13 45  1  0  0  0  0
 13 46  1  0  0  0  0
 14 47  1  0  0  0  0
 15 48  1  0  0  0  0
 17 49  1  0  0  0  0
 18 50  1  0  0  0  0
 23 51  1  0  0  0  0
 24 52  1  0  0  0  0
 29 53  1  0  0  0  0
 30 54  1  0  0  0  0
 32 55  1  0  0  0  0
 32 56  1  0  0  0  0
 33 57  1  0  0  0  0
 34 58  1  0  0  0  0
 36 59  1  0  0  0  0
 37 60  1  0  0  0  0
 62 63  4  0  0  0  0
 63 64  4  0  0  0  0
 64 65  2  0  0  0  0
 65 66  4  0  0  0  0
 61 67  1  0  0  0  0
 63 67  4  0  0  0  0
 66 67  4  0  0  0  0
 66 68  4  0  0  0  0
 68 69  1  0  0  0  0
 69 70  4  0  0  0  0
 70 71  4  0  0  0  0
 71 72  4  0  0  0  0
 72 73  1  0  0  0  0
 72 74  4  0  0  0  0
 69 75  4  0  0  0  0
 74 75  4  0  0  0  0
 68 76  4  0  0  0  0
 76 77  4  0  0  0  0
 77 78  2  0  0  0  0
 61 79  1  0  0  0  0
 76 79  4  0  0  0  0
 78 80  4  0  0  0  0
 79 80  4  0  0  0  0
 80 81  4  0  0  0  0
 81 82  4  0  0  0  0
 82 83  4  0  0  0  0
 83 84  2  0  0  0  0
 84 85  4  0  0  0  0
 61 86  1  0  0  0  0
 82 86  4  0  0  0  0
 85 86  4  0  0  0  0
 85 87  4  0  0  0  0
 87 88  1  0  0  0  0
 88 89  4  0  0  0  0
 89 90  4  0  0  0  0
 90 91  4  0  0  0  0
 91 92  1  0  0  0  0
 91 93  4  0  0  0  0
 88 94  4  0  0  0  0
 93 94  4  0  0  0  0
 87 95  4  0  0  0  0
 95 96  4  0  0  0  0
 96 97  2  0  0  0  0
 62 98  4  0  0  0  0
 97 98  4  0  0  0  0
 61 99  1  0  0  0  0
 95 99  4  0  0  0  0
 98 99  4  0  0  0  0
 62100  1  0  0  0  0
 64101  1  0  0  0  0
 65102  1  0  0  0  0
 70103  1  0  0  0  0
 71104  1  0  0  0  0
 73105  1  0  0  0  0
 73106  1  0  0  0  0
 74107  1  0  0  0  0
 75108  1  0  0  0  0
 77109  1  0  0  0  0
 78110  1  0  0  0  0
 83111  1  0  0  0  0
 84112  1  0  0  0  0
 89113  1  0  0  0  0
 90114  1  0  0  0  0
 92115  1  0  0  0  0
 92116  1  0  0  0  0
 93117  1  0  0  0  0
 94118  1  0  0  0  0
 96119  1  0  0  0  0
 97120  1  0  0  0  0
 21121  4  0  0  0  0
121122  3  0  0  0  0
122123  4  0  0  0  0
123124  3  0  0  0  0
124125  4  0  0  0  0
125126  3  0  0  0  0
126127  4  0  0  0  0
127128  3  0  0  0  0
129130  3  0  0  0  0
130131  4  0  0  0  0
131132  3  0  0  0  0
132133  4  0  0  0  0
133134  3  0  0  0  0
134135  4  0  0  0  0
 81136  4  0  0  0  0
135136  3  0  0  0  0
128138  4  0  0  0  0
138139  4  0  0  0  0
139140  4  0  0  0  0
140141  2  0  0  0  0
141142  4  0  0  0  0
137143  1  0  0  0  0
139143  4  0  0  0  0
142143  4  0  0  0  0
142144  4  0  0  0  0
144145  1  0  0  0  0
145146  4  0  0  0  0
146147  4  0  0  0  0
147148  4  0  0  0  0
148149  1  0  0  0  0
148150  4  0  0  0  0
145151  4  0  0  0  0
150151  4  0  0  0  0
144152  4  0  0  0  0
152153  4  0  0  0  0
153154  2  0  0  0  0
137155  1  0  0  0  0
152155  4  0  0  0  0
154156  4  0  0  0  0
155156  4  0  0  0  0
129157  4  0  0  0  0
156157  4  0  0  0  0
157158  4  0  0  0  0
158159  4  0  0  0  0
159160  2  0  0  0  0
160161  4  0  0  0  0
137162  1  0  0  0  0
158162  4  0  0  0  0
161162  4  0  0  0  0
161163  4  0  0  0  0
163164  1  0  0  0  0
164165  4  0  0  0  0
165166  4  0  0  0  0
166167  4  0  0  0  0
167168  1  0  0  0  0
167169  4  0  0  0  0
164170  4  0  0  0  0
169170  4  0  0  0  0
163171  4  0  0  0  0
171172  4  0  0  0  0
172173  2  0  0  0  0
138174  4  0  0  0  0
173174  4  0  0  0  0
137175  1  0  0  0  0
171175  4  0  0  0  0
174175  4  0  0  0  0
140176  1  0  0  0  0
141177  1  0  0  0  0
146178  1  0  0  0  0
147179  1  0  0  0  0
149180  1  0  0  0  0
149181  1  0  0  0  0
150182  1  0  0  0  0
151183  1  0  0  0  0
153184  1  0  0  0  0
154185  1  0  0  0  0
159186  1  0  0  0  0
160187  1  0  0  0  0
165188  1  0  0  0  0
166189  1  0  0  0  0
168190  1  0  0  0  0
168191  1  0  0  0  0
169192  1  0  0  0  0
170193  1  0  0  0  0
172194  1  0  0  0  0
173195  1  0  0  0  0
M  END
