 xtb: 6.5.1 (b24c23e)
          07302206143D

244283  0     0  0            999 V2000
   51.8330   -0.0011   -0.0280 Cu  0  0  0  0  0  0  0  0  0  0  0  0
   48.4228    0.0258   -0.1221 C   0  0  0  0  0  0  0  0  0  0  0  0
   49.0533    1.2514    0.0285 C   0  0  0  0  0  0  0  0  0  0  0  0
   48.3735    2.5067    0.1763 C   0  0  0  0  0  0  0  0  0  0  0  0
   49.3281    3.4565    0.3335 C   0  0  0  0  0  0  0  0  0  0  0  0
   50.6008    2.7897    0.2738 C   0  0  0  0  0  0  0  0  0  0  0  0
   50.4029    1.4520    0.0911 N   0  0  0  0  0  0  0  0  0  0  0  0
   51.8422    3.4101    0.4281 C   0  0  0  0  0  0  0  0  0  0  0  0
   51.8501    4.8794    0.6331 C   0  0  0  0  0  0  0  0  0  0  0  0
   52.3281    5.4237    1.8288 C   0  0  0  0  0  0  0  0  0  0  0  0
   52.3350    6.7921    2.0186 C   0  0  0  0  0  0  0  0  0  0  0  0
   51.8700    7.6482    1.0148 C   0  0  0  0  0  0  0  0  0  0  0  0
   51.8938    9.1050    1.2399 C   0  0  0  0  0  0  0  0  0  0  0  0
   52.2925    9.6187    2.2537 O   0  0  0  0  0  0  0  0  0  0  0  0
   51.3934    7.1054   -0.1808 C   0  0  0  0  0  0  0  0  0  0  0  0
   51.3808    5.7345   -0.3676 C   0  0  0  0  0  0  0  0  0  0  0  0
   53.0775    2.7595    0.4061 C   0  0  0  0  0  0  0  0  0  0  0  0
   54.3471    3.4169    0.5256 C   0  0  0  0  0  0  0  0  0  0  0  0
   55.3002    2.4580    0.4175 C   0  0  0  0  0  0  0  0  0  0  0  0
   53.2799    1.4171    0.2207 N   0  0  0  0  0  0  0  0  0  0  0  0
   54.6267    1.2104    0.2232 C   0  0  0  0  0  0  0  0  0  0  0  0
   55.2780   -0.0231    0.0357 C   0  0  0  0  0  0  0  0  0  0  0  0
   54.6178   -1.2501   -0.1624 C   0  0  0  0  0  0  0  0  0  0  0  0
   55.2811   -2.4995   -0.3791 C   0  0  0  0  0  0  0  0  0  0  0  0
   54.3198   -3.4485   -0.5026 C   0  0  0  0  0  0  0  0  0  0  0  0
   53.0560   -2.7844   -0.3599 C   0  0  0  0  0  0  0  0  0  0  0  0
   53.2691   -1.4449   -0.1677 N   0  0  0  0  0  0  0  0  0  0  0  0
   51.8138   -3.4185   -0.4357 C   0  0  0  0  0  0  0  0  0  0  0  0
   51.8103   -4.8936   -0.5862 C   0  0  0  0  0  0  0  0  0  0  0  0
   51.2463   -5.4914   -1.7165 C   0  0  0  0  0  0  0  0  0  0  0  0
   51.2413   -6.8684   -1.8525 C   0  0  0  0  0  0  0  0  0  0  0  0
   51.7949   -7.6760   -0.8562 C   0  0  0  0  0  0  0  0  0  0  0  0
   51.7955   -9.1458   -0.9723 C   0  0  0  0  0  0  0  0  0  0  0  0
   52.2500   -9.8824   -0.1348 O   0  0  0  0  0  0  0  0  0  0  0  0
   52.3584   -7.0781    0.2760 C   0  0  0  0  0  0  0  0  0  0  0  0
   52.3691   -5.7031    0.4077 C   0  0  0  0  0  0  0  0  0  0  0  0
   50.5757   -2.7747   -0.3762 C   0  0  0  0  0  0  0  0  0  0  0  0
   49.2966   -3.4307   -0.4162 C   0  0  0  0  0  0  0  0  0  0  0  0
   48.3503   -2.4630   -0.3371 C   0  0  0  0  0  0  0  0  0  0  0  0
   49.0419   -1.2097   -0.2346 C   0  0  0  0  0  0  0  0  0  0  0  0
   50.3901   -1.4284   -0.2537 N   0  0  0  0  0  0  0  0  0  0  0  0
   47.3379    0.0327   -0.1386 H   0  0  0  0  0  0  0  0  0  0  0  0
   47.3019    2.6291    0.1673 H   0  0  0  0  0  0  0  0  0  0  0  0
   49.1904    4.5144    0.4892 H   0  0  0  0  0  0  0  0  0  0  0  0
   52.6798    4.7619    2.6123 H   0  0  0  0  0  0  0  0  0  0  0  0
   52.6992    7.2224    2.9454 H   0  0  0  0  0  0  0  0  0  0  0  0
   51.5073    9.7045    0.3884 H   0  0  0  0  0  0  0  0  0  0  0  0
   51.0340    7.7626   -0.9661 H   0  0  0  0  0  0  0  0  0  0  0  0
   51.0211    5.3162   -1.3010 H   0  0  0  0  0  0  0  0  0  0  0  0
   54.4892    4.4766    0.6615 H   0  0  0  0  0  0  0  0  0  0  0  0
   56.3687    2.5804    0.4609 H   0  0  0  0  0  0  0  0  0  0  0  0
   56.3483   -2.6284   -0.4357 H   0  0  0  0  0  0  0  0  0  0  0  0
   54.4517   -4.5016   -0.6903 H   0  0  0  0  0  0  0  0  0  0  0  0
   50.8261   -4.8668   -2.4968 H   0  0  0  0  0  0  0  0  0  0  0  0
   50.8063   -7.3239   -2.7362 H   0  0  0  0  0  0  0  0  0  0  0  0
   51.3369   -9.5298   -1.9085 H   0  0  0  0  0  0  0  0  0  0  0  0
   52.7833   -7.7132    1.0458 H   0  0  0  0  0  0  0  0  0  0  0  0
   52.7961   -5.2426    1.2915 H   0  0  0  0  0  0  0  0  0  0  0  0
   49.1487   -4.4965   -0.4836 H   0  0  0  0  0  0  0  0  0  0  0  0
   47.2775   -2.5740   -0.3377 H   0  0  0  0  0  0  0  0  0  0  0  0
   84.5933   -0.0543   -0.0546 Cu  0  0  0  0  0  0  0  0  0  0  0  0
   87.9998   -0.0928   -0.1068 C   0  0  0  0  0  0  0  0  0  0  0  0
   87.3616   -1.3232   -0.1419 C   0  0  0  0  0  0  0  0  0  0  0  0
   88.0342   -2.5908   -0.1641 C   0  0  0  0  0  0  0  0  0  0  0  0
   87.0736   -3.5476   -0.1631 C   0  0  0  0  0  0  0  0  0  0  0  0
   85.8043   -2.8718   -0.1510 C   0  0  0  0  0  0  0  0  0  0  0  0
   86.0104   -1.5228   -0.1323 N   0  0  0  0  0  0  0  0  0  0  0  0
   84.5580   -3.5019   -0.1181 C   0  0  0  0  0  0  0  0  0  0  0  0
   84.5403   -4.9847   -0.1323 C   0  0  0  0  0  0  0  0  0  0  0  0
   84.0174   -5.6959    0.9520 C   0  0  0  0  0  0  0  0  0  0  0  0
   84.0012   -7.0772    0.9381 C   0  0  0  0  0  0  0  0  0  0  0  0
   84.5031   -7.7798   -0.1625 C   0  0  0  0  0  0  0  0  0  0  0  0
   84.4698   -9.2536   -0.1550 C   0  0  0  0  0  0  0  0  0  0  0  0
   84.0270   -9.9082    0.7540 O   0  0  0  0  0  0  0  0  0  0  0  0
   85.0247   -7.0704   -1.2470 C   0  0  0  0  0  0  0  0  0  0  0  0
   85.0450   -5.6871   -1.2301 C   0  0  0  0  0  0  0  0  0  0  0  0
   83.3262   -2.8456   -0.0698 C   0  0  0  0  0  0  0  0  0  0  0  0
   82.0480   -3.4988   -0.0720 C   0  0  0  0  0  0  0  0  0  0  0  0
   81.1043   -2.5243   -0.0456 C   0  0  0  0  0  0  0  0  0  0  0  0
   83.1396   -1.4889   -0.0541 N   0  0  0  0  0  0  0  0  0  0  0  0
   81.7958   -1.2704   -0.0398 C   0  0  0  0  0  0  0  0  0  0  0  0
   81.1619   -0.0159   -0.0312 C   0  0  0  0  0  0  0  0  0  0  0  0
   81.8234    1.2241   -0.0165 C   0  0  0  0  0  0  0  0  0  0  0  0
   81.1620    2.4939   -0.0449 C   0  0  0  0  0  0  0  0  0  0  0  0
   82.1283    3.4460   -0.0133 C   0  0  0  0  0  0  0  0  0  0  0  0
   83.3898    2.7627    0.0353 C   0  0  0  0  0  0  0  0  0  0  0  0
   83.1718    1.4108    0.0202 N   0  0  0  0  0  0  0  0  0  0  0  0
   84.6368    3.3913    0.0594 C   0  0  0  0  0  0  0  0  0  0  0  0
   84.6535    4.8722    0.1276 C   0  0  0  0  0  0  0  0  0  0  0  0
   85.2309    5.6235   -0.8996 C   0  0  0  0  0  0  0  0  0  0  0  0
   85.2511    7.0054   -0.8314 C   0  0  0  0  0  0  0  0  0  0  0  0
   84.6997    7.6637    0.2704 C   0  0  0  0  0  0  0  0  0  0  0  0
   84.7186    9.1344    0.3735 C   0  0  0  0  0  0  0  0  0  0  0  0
   84.2706    9.7449    1.3099 O   0  0  0  0  0  0  0  0  0  0  0  0
   84.1213    6.9121    1.2987 C   0  0  0  0  0  0  0  0  0  0  0  0
   84.0951    5.5328    1.2263 C   0  0  0  0  0  0  0  0  0  0  0  0
   85.8691    2.7338    0.0282 C   0  0  0  0  0  0  0  0  0  0  0  0
   87.1536    3.3772    0.0950 C   0  0  0  0  0  0  0  0  0  0  0  0
   88.0919    2.4001    0.0396 C   0  0  0  0  0  0  0  0  0  0  0  0
   87.3903    1.1513   -0.0482 C   0  0  0  0  0  0  0  0  0  0  0  0
   86.0441    1.3824   -0.0482 N   0  0  0  0  0  0  0  0  0  0  0  0
   89.0848   -0.1053   -0.1099 H   0  0  0  0  0  0  0  0  0  0  0  0
   89.1053   -2.7174   -0.1707 H   0  0  0  0  0  0  0  0  0  0  0  0
   87.2054   -4.6176   -0.1578 H   0  0  0  0  0  0  0  0  0  0  0  0
   83.6384   -5.1543    1.8114 H   0  0  0  0  0  0  0  0  0  0  0  0
   83.6018   -7.6364    1.7774 H   0  0  0  0  0  0  0  0  0  0  0  0
   84.8928   -9.7240   -1.0681 H   0  0  0  0  0  0  0  0  0  0  0  0
   85.4128   -7.6076   -2.1064 H   0  0  0  0  0  0  0  0  0  0  0  0
   85.4386   -5.1389   -2.0787 H   0  0  0  0  0  0  0  0  0  0  0  0
   81.8945   -4.5653   -0.1009 H   0  0  0  0  0  0  0  0  0  0  0  0
   80.0327   -2.6380   -0.0298 H   0  0  0  0  0  0  0  0  0  0  0  0
   80.0942    2.6324   -0.0942 H   0  0  0  0  0  0  0  0  0  0  0  0
   82.0021    4.5162   -0.0387 H   0  0  0  0  0  0  0  0  0  0  0  0
   85.6501    5.1159   -1.7611 H   0  0  0  0  0  0  0  0  0  0  0  0
   85.6969    7.5811   -1.6360 H   0  0  0  0  0  0  0  0  0  0  0  0
   85.1870    9.6465   -0.4941 H   0  0  0  0  0  0  0  0  0  0  0  0
   83.6977    7.4318    2.1514 H   0  0  0  0  0  0  0  0  0  0  0  0
   83.6570    4.9522    2.0303 H   0  0  0  0  0  0  0  0  0  0  0  0
   87.3101    4.4399    0.1861 H   0  0  0  0  0  0  0  0  0  0  0  0
   89.1655    2.5008    0.0648 H   0  0  0  0  0  0  0  0  0  0  0  0
   56.6904   -0.0282    0.0402 C   0  0  0  0  0  0  0  0  0  0  0  0
   57.9090   -0.0316    0.0448 C   0  0  0  0  0  0  0  0  0  0  0  0
   67.6219   -0.0320    0.0135 C   0  0  0  0  0  0  0  0  0  0  0  0
   68.8398   -0.0245    0.0036 C   0  0  0  0  0  0  0  0  0  0  0  0
   78.5351    0.0062   -0.0497 C   0  0  0  0  0  0  0  0  0  0  0  0
   79.7518   -0.0032   -0.0406 C   0  0  0  0  0  0  0  0  0  0  0  0
   62.7702   -0.0370    0.0411 Cu  0  0  0  0  0  0  0  0  0  0  0  0
   59.3204   -0.0345    0.0467 C   0  0  0  0  0  0  0  0  0  0  0  0
   59.9824    1.1823    0.2995 C   0  0  0  0  0  0  0  0  0  0  0  0
   59.3295    2.4438    0.4677 C   0  0  0  0  0  0  0  0  0  0  0  0
   60.2893    3.3560    0.7654 C   0  0  0  0  0  0  0  0  0  0  0  0
   61.5396    2.6538    0.7865 C   0  0  0  0  0  0  0  0  0  0  0  0
   61.3244    1.3377    0.4768 N   0  0  0  0  0  0  0  0  0  0  0  0
   62.7753    3.2308    1.0926 C   0  0  0  0  0  0  0  0  0  0  0  0
   62.7744    4.6412    1.5439 C   0  0  0  0  0  0  0  0  0  0  0  0
   63.5036    5.6089    0.8452 C   0  0  0  0  0  0  0  0  0  0  0  0
   63.4980    6.9251    1.2643 C   0  0  0  0  0  0  0  0  0  0  0  0
   62.7673    7.3050    2.3951 C   0  0  0  0  0  0  0  0  0  0  0  0
   62.7808    8.7158    2.8237 C   0  0  0  0  0  0  0  0  0  0  0  0
   63.3973    9.5807    2.2562 O   0  0  0  0  0  0  0  0  0  0  0  0
   62.0404    6.3395    3.0958 C   0  0  0  0  0  0  0  0  0  0  0  0
   62.0425    5.0224    2.6726 C   0  0  0  0  0  0  0  0  0  0  0  0
   64.0108    2.5852    1.0016 C   0  0  0  0  0  0  0  0  0  0  0  0
   65.2660    3.1416    1.4179 C   0  0  0  0  0  0  0  0  0  0  0  0
   66.2227    2.2247    1.1226 C   0  0  0  0  0  0  0  0  0  0  0  0
   64.2192    1.3340    0.4865 N   0  0  0  0  0  0  0  0  0  0  0  0
   65.5599    1.1037    0.5287 C   0  0  0  0  0  0  0  0  0  0  0  0
   66.2137   -0.0362    0.0249 C   0  0  0  0  0  0  0  0  0  0  0  0
   65.5563   -1.1787   -0.4680 C   0  0  0  0  0  0  0  0  0  0  0  0
   66.2139   -2.3022   -1.0628 C   0  0  0  0  0  0  0  0  0  0  0  0
   65.2549   -3.2206   -1.3454 C   0  0  0  0  0  0  0  0  0  0  0  0
   64.0030   -2.6622   -0.9218 C   0  0  0  0  0  0  0  0  0  0  0  0
   64.2160   -1.4096   -0.4121 N   0  0  0  0  0  0  0  0  0  0  0  0
   62.7662   -3.3063   -1.0060 C   0  0  0  0  0  0  0  0  0  0  0  0
   62.7606   -4.7158   -1.4606 C   0  0  0  0  0  0  0  0  0  0  0  0
   63.4842   -5.6875   -0.7630 C   0  0  0  0  0  0  0  0  0  0  0  0
   63.4745   -7.0057   -1.1829 C   0  0  0  0  0  0  0  0  0  0  0  0
   62.7450   -7.3785   -2.3144 C   0  0  0  0  0  0  0  0  0  0  0  0
   62.7181   -8.7759   -2.7847 C   0  0  0  0  0  0  0  0  0  0  0  0
   62.1055   -9.1424   -3.7546 O   0  0  0  0  0  0  0  0  0  0  0  0
   62.0243   -6.4061   -3.0157 C   0  0  0  0  0  0  0  0  0  0  0  0
   62.0295   -5.0913   -2.5924 C   0  0  0  0  0  0  0  0  0  0  0  0
   61.5321   -2.7275   -0.6972 C   0  0  0  0  0  0  0  0  0  0  0  0
   60.2799   -3.4266   -0.6768 C   0  0  0  0  0  0  0  0  0  0  0  0
   59.3224   -2.5127   -0.3775 C   0  0  0  0  0  0  0  0  0  0  0  0
   59.9787   -1.2530   -0.2070 C   0  0  0  0  0  0  0  0  0  0  0  0
   61.3201   -1.4113   -0.3849 N   0  0  0  0  0  0  0  0  0  0  0  0
   58.2718    2.6098    0.3561 H   0  0  0  0  0  0  0  0  0  0  0  0
   60.1655    4.4131    0.9352 H   0  0  0  0  0  0  0  0  0  0  0  0
   64.0590    5.3209   -0.0402 H   0  0  0  0  0  0  0  0  0  0  0  0
   64.0560    7.6822    0.7239 H   0  0  0  0  0  0  0  0  0  0  0  0
   62.1669    8.9244    3.7257 H   0  0  0  0  0  0  0  0  0  0  0  0
   61.4738    6.6247    3.9762 H   0  0  0  0  0  0  0  0  0  0  0  0
   61.4884    4.2731    3.2267 H   0  0  0  0  0  0  0  0  0  0  0  0
   65.3940    4.1004    1.8936 H   0  0  0  0  0  0  0  0  0  0  0  0
   67.2831    2.2890    1.3029 H   0  0  0  0  0  0  0  0  0  0  0  0
   67.2727   -2.3683   -1.2520 H   0  0  0  0  0  0  0  0  0  0  0  0
   65.3793   -4.1815   -1.8178 H   0  0  0  0  0  0  0  0  0  0  0  0
   64.0400   -5.4040    0.1237 H   0  0  0  0  0  0  0  0  0  0  0  0
   64.0335   -7.7541   -0.6307 H   0  0  0  0  0  0  0  0  0  0  0  0
   63.3151   -9.4778   -2.1644 H   0  0  0  0  0  0  0  0  0  0  0  0
   61.4643   -6.7040   -3.8956 H   0  0  0  0  0  0  0  0  0  0  0  0
   61.4803   -4.3378   -3.1457 H   0  0  0  0  0  0  0  0  0  0  0  0
   60.1533   -4.4828   -0.8500 H   0  0  0  0  0  0  0  0  0  0  0  0
   58.2641   -2.6763   -0.2664 H   0  0  0  0  0  0  0  0  0  0  0  0
   73.6886   -0.0055   -0.0298 Cu  0  0  0  0  0  0  0  0  0  0  0  0
   70.2482   -0.0188   -0.0067 C   0  0  0  0  0  0  0  0  0  0  0  0
   70.8997    1.2035    0.2424 C   0  0  0  0  0  0  0  0  0  0  0  0
   70.2327    2.4582    0.4158 C   0  0  0  0  0  0  0  0  0  0  0  0
   71.1877    3.3804    0.6992 C   0  0  0  0  0  0  0  0  0  0  0  0
   72.4469    2.6926    0.7003 C   0  0  0  0  0  0  0  0  0  0  0  0
   72.2412    1.3729    0.3990 N   0  0  0  0  0  0  0  0  0  0  0  0
   73.6829    3.2852    0.9719 C   0  0  0  0  0  0  0  0  0  0  0  0
   73.6779    4.6982    1.4161 C   0  0  0  0  0  0  0  0  0  0  0  0
   74.3698    5.6736    0.6910 C   0  0  0  0  0  0  0  0  0  0  0  0
   74.3627    6.9902    1.1092 C   0  0  0  0  0  0  0  0  0  0  0  0
   73.6695    7.3622    2.2659 C   0  0  0  0  0  0  0  0  0  0  0  0
   73.6817    8.7738    2.6927 C   0  0  0  0  0  0  0  0  0  0  0  0
   74.2570    9.6471    2.0957 O   0  0  0  0  0  0  0  0  0  0  0  0
   72.9800    6.3887    2.9928 C   0  0  0  0  0  0  0  0  0  0  0  0
   72.9819    5.0716    2.5697 C   0  0  0  0  0  0  0  0  0  0  0  0
   74.9229    2.6505    0.8607 C   0  0  0  0  0  0  0  0  0  0  0  0
   76.1822    3.2285    1.2342 C   0  0  0  0  0  0  0  0  0  0  0  0
   77.1403    2.3108    0.9472 C   0  0  0  0  0  0  0  0  0  0  0  0
   75.1311    1.3879    0.3747 N   0  0  0  0  0  0  0  0  0  0  0  0
   76.4739    1.1662    0.4035 C   0  0  0  0  0  0  0  0  0  0  0  0
   77.1257    0.0071   -0.0527 C   0  0  0  0  0  0  0  0  0  0  0  0
   76.4754   -1.1554   -0.5038 C   0  0  0  0  0  0  0  0  0  0  0  0
   77.1416   -2.2952   -1.0571 C   0  0  0  0  0  0  0  0  0  0  0  0
   76.1864   -3.2220   -1.3252 C   0  0  0  0  0  0  0  0  0  0  0  0
   74.9293   -2.6537   -0.9313 C   0  0  0  0  0  0  0  0  0  0  0  0
   75.1350   -1.3876   -0.4534 N   0  0  0  0  0  0  0  0  0  0  0  0
   73.6937   -3.3009   -1.0171 C   0  0  0  0  0  0  0  0  0  0  0  0
   73.6960   -4.7194   -1.4434 C   0  0  0  0  0  0  0  0  0  0  0  0
   74.4068   -5.6760   -0.7125 C   0  0  0  0  0  0  0  0  0  0  0  0
   74.4071   -7.0021   -1.1062 C   0  0  0  0  0  0  0  0  0  0  0  0
   73.7012   -7.3983   -2.2449 C   0  0  0  0  0  0  0  0  0  0  0  0
   73.6861   -8.8047   -2.6867 C   0  0  0  0  0  0  0  0  0  0  0  0
   73.0955   -9.1931   -3.6618 O   0  0  0  0  0  0  0  0  0  0  0  0
   72.9936   -6.4410   -2.9796 C   0  0  0  0  0  0  0  0  0  0  0  0
   72.9881   -5.1181   -2.5818 C   0  0  0  0  0  0  0  0  0  0  0  0
   72.4566   -2.7172   -0.7328 C   0  0  0  0  0  0  0  0  0  0  0  0
   71.2024   -3.4139   -0.7137 C   0  0  0  0  0  0  0  0  0  0  0  0
   70.2444   -2.4968   -0.4242 C   0  0  0  0  0  0  0  0  0  0  0  0
   70.9047   -1.2370   -0.2631 C   0  0  0  0  0  0  0  0  0  0  0  0
   72.2452   -1.3976   -0.4351 N   0  0  0  0  0  0  0  0  0  0  0  0
   69.1706    2.6103    0.3160 H   0  0  0  0  0  0  0  0  0  0  0  0
   71.0566    4.4366    0.8701 H   0  0  0  0  0  0  0  0  0  0  0  0
   74.8975    5.3915   -0.2130 H   0  0  0  0  0  0  0  0  0  0  0  0
   74.8919    7.7536    0.5490 H   0  0  0  0  0  0  0  0  0  0  0  0
   73.1061    8.9747    3.6213 H   0  0  0  0  0  0  0  0  0  0  0  0
   72.4426    6.6675    3.8935 H   0  0  0  0  0  0  0  0  0  0  0  0
   72.4567    4.3160    3.1432 H   0  0  0  0  0  0  0  0  0  0  0  0
   76.3130    4.2026    1.6768 H   0  0  0  0  0  0  0  0  0  0  0  0
   78.2041    2.3894    1.1020 H   0  0  0  0  0  0  0  0  0  0  0  0
   78.2025   -2.3650   -1.2337 H   0  0  0  0  0  0  0  0  0  0  0  0
   76.3177   -4.1957   -1.7685 H   0  0  0  0  0  0  0  0  0  0  0  0
   74.9449   -5.3739    0.1790 H   0  0  0  0  0  0  0  0  0  0  0  0
   74.9559   -7.7388   -0.5286 H   0  0  0  0  0  0  0  0  0  0  0  0
   74.2710   -9.4924   -2.0394 H   0  0  0  0  0  0  0  0  0  0  0  0
   72.4524   -6.7567   -3.8650 H   0  0  0  0  0  0  0  0  0  0  0  0
   72.4489   -4.3767   -3.1606 H   0  0  0  0  0  0  0  0  0  0  0  0
   71.0762   -4.4716   -0.8788 H   0  0  0  0  0  0  0  0  0  0  0  0
   69.1844   -2.6563   -0.3129 H   0  0  0  0  0  0  0  0  0  0  0  0
  2  3  4  0  0  0  0
  3  4  1  0  0  0  0
  4  5  2  0  0  0  0
  5  6  4  0  0  0  0
  1  7  1  0  0  0  0
  3  7  4  0  0  0  0
  6  7  4  0  0  0  0
  6  8  4  0  0  0  0
  8  9  1  0  0  0  0
  9 10  4  0  0  0  0
 10 11  4  0  0  0  0
 11 12  4  0  0  0  0
 12 13  1  0  0  0  0
 13 14  2  0  0  0  0
 12 15  4  0  0  0  0
  9 16  4  0  0  0  0
 15 16  4  0  0  0  0
  8 17  4  0  0  0  0
 17 18  4  0  0  0  0
 18 19  2  0  0  0  0
  1 20  1  0  0  0  0
 17 20  4  0  0  0  0
 19 21  4  0  0  0  0
 20 21  4  0  0  0  0
 21 22  4  0  0  0  0
 22 23  4  0  0  0  0
 23 24  4  0  0  0  0
 24 25  2  0  0  0  0
 25 26  4  0  0  0  0
  1 27  1  0  0  0  0
 23 27  4  0  0  0  0
 26 27  4  0  0  0  0
 26 28  4  0  0  0  0
 28 29  1  0  0  0  0
 29 30  4  0  0  0  0
 30 31  4  0  0  0  0
 31 32  4  0  0  0  0
 32 33  1  0  0  0  0
 33 34  2  0  0  0  0
 32 35  4  0  0  0  0
 29 36  4  0  0  0  0
 35 36  4  0  0  0  0
 28 37  4  0  0  0  0
 37 38  4  0  0  0  0
 38 39  2  0  0  0  0
  2 40  4  0  0  0  0
 39 40  1  0  0  0  0
  1 41  1  0  0  0  0
 37 41  4  0  0  0  0
 40 41  4  0  0  0  0
  2 42  1  0  0  0  0
  4 43  1  0  0  0  0
  5 44  1  0  0  0  0
 10 45  1  0  0  0  0
 11 46  1  0  0  0  0
 13 47  1  0  0  0  0
 15 48  1  0  0  0  0
 16 49  1  0  0  0  0
 18 50  1  0  0  0  0
 19 51  1  0  0  0  0
 24 52  1  0  0  0  0
 25 53  1  0  0  0  0
 30 54  1  0  0  0  0
 31 55  1  0  0  0  0
 33 56  1  0  0  0  0
 35 57  1  0  0  0  0
 36 58  1  0  0  0  0
 38 59  1  0  0  0  0
 39 60  1  0  0  0  0
 62 63  4  0  0  0  0
 63 64  1  0  0  0  0
 64 65  2  0  0  0  0
 65 66  4  0  0  0  0
 61 67  1  0  0  0  0
 63 67  4  0  0  0  0
 66 67  4  0  0  0  0
 66 68  4  0  0  0  0
 68 69  1  0  0  0  0
 69 70  4  0  0  0  0
 70 71  4  0  0  0  0
 71 72  4  0  0  0  0
 72 73  1  0  0  0  0
 73 74  2  0  0  0  0
 72 75  4  0  0  0  0
 69 76  4  0  0  0  0
 75 76  4  0  0  0  0
 68 77  4  0  0  0  0
 77 78  4  0  0  0  0
 78 79  2  0  0  0  0
 61 80  1  0  0  0  0
 77 80  4  0  0  0  0
 79 81  4  0  0  0  0
 80 81  4  0  0  0  0
 81 82  4  0  0  0  0
 82 83  4  0  0  0  0
 83 84  4  0  0  0  0
 84 85  2  0  0  0  0
 85 86  4  0  0  0  0
 61 87  1  0  0  0  0
 83 87  4  0  0  0  0
 86 87  4  0  0  0  0
 86 88  4  0  0  0  0
 88 89  1  0  0  0  0
 89 90  4  0  0  0  0
 90 91  4  0  0  0  0
 91 92  4  0  0  0  0
 92 93  1  0  0  0  0
 93 94  2  0  0  0  0
 92 95  4  0  0  0  0
 89 96  4  0  0  0  0
 95 96  4  0  0  0  0
 88 97  4  0  0  0  0
 97 98  4  0  0  0  0
 98 99  2  0  0  0  0
 62100  4  0  0  0  0
 99100  1  0  0  0  0
 61101  1  0  0  0  0
 97101  4  0  0  0  0
100101  4  0  0  0  0
 62102  1  0  0  0  0
 64103  1  0  0  0  0
 65104  1  0  0  0  0
 70105  1  0  0  0  0
 71106  1  0  0  0  0
 73107  1  0  0  0  0
 75108  1  0  0  0  0
 76109  1  0  0  0  0
 78110  1  0  0  0  0
 79111  1  0  0  0  0
 84112  1  0  0  0  0
 85113  1  0  0  0  0
 90114  1  0  0  0  0
 91115  1  0  0  0  0
 93116  1  0  0  0  0
 95117  1  0  0  0  0
 96118  1  0  0  0  0
 98119  1  0  0  0  0
 99120  1  0  0  0  0
 22121  4  0  0  0  0
121122  3  0  0  0  0
123124  3  0  0  0  0
 82126  4  0  0  0  0
125126  3  0  0  0  0
122128  4  0  0  0  0
128129  4  0  0  0  0
129130  4  0  0  0  0
130131  2  0  0  0  0
131132  4  0  0  0  0
127133  1  0  0  0  0
129133  4  0  0  0  0
132133  4  0  0  0  0
132134  4  0  0  0  0
134135  1  0  0  0  0
135136  4  0  0  0  0
136137  4  0  0  0  0
137138  4  0  0  0  0
138139  1  0  0  0  0
139140  2  0  0  0  0
138141  4  0  0  0  0
135142  4  0  0  0  0
141142  4  0  0  0  0
134143  4  0  0  0  0
143144  4  0  0  0  0
144145  2  0  0  0  0
127146  1  0  0  0  0
143146  4  0  0  0  0
145147  4  0  0  0  0
146147  4  0  0  0  0
123148  4  0  0  0  0
147148  4  0  0  0  0
148149  4  0  0  0  0
149150  4  0  0  0  0
150151  2  0  0  0  0
151152  4  0  0  0  0
127153  1  0  0  0  0
149153  4  0  0  0  0
152153  4  0  0  0  0
152154  4  0  0  0  0
154155  1  0  0  0  0
155156  4  0  0  0  0
156157  4  0  0  0  0
157158  4  0  0  0  0
158159  1  0  0  0  0
159160  2  0  0  0  0
158161  4  0  0  0  0
155162  4  0  0  0  0
161162  4  0  0  0  0
154163  4  0  0  0  0
163164  4  0  0  0  0
164165  2  0  0  0  0
128166  4  0  0  0  0
165166  4  0  0  0  0
127167  1  0  0  0  0
163167  4  0  0  0  0
166167  4  0  0  0  0
130168  1  0  0  0  0
131169  1  0  0  0  0
136170  1  0  0  0  0
137171  1  0  0  0  0
139172  1  0  0  0  0
141173  1  0  0  0  0
142174  1  0  0  0  0
144175  1  0  0  0  0
145176  1  0  0  0  0
150177  1  0  0  0  0
151178  1  0  0  0  0
156179  1  0  0  0  0
157180  1  0  0  0  0
159181  1  0  0  0  0
161182  1  0  0  0  0
162183  1  0  0  0  0
164184  1  0  0  0  0
165185  1  0  0  0  0
124187  4  0  0  0  0
187188  4  0  0  0  0
188189  4  0  0  0  0
189190  2  0  0  0  0
190191  4  0  0  0  0
186192  1  0  0  0  0
188192  4  0  0  0  0
191192  4  0  0  0  0
191193  4  0  0  0  0
193194  1  0  0  0  0
194195  4  0  0  0  0
195196  4  0  0  0  0
196197  4  0  0  0  0
197198  1  0  0  0  0
198199  2  0  0  0  0
197200  4  0  0  0  0
194201  4  0  0  0  0
200201  4  0  0  0  0
193202  4  0  0  0  0
202203  4  0  0  0  0
203204  2  0  0  0  0
186205  1  0  0  0  0
202205  4  0  0  0  0
204206  4  0  0  0  0
205206  4  0  0  0  0
125207  4  0  0  0  0
206207  4  0  0  0  0
207208  4  0  0  0  0
208209  4  0  0  0  0
209210  2  0  0  0  0
210211  4  0  0  0  0
186212  1  0  0  0  0
208212  4  0  0  0  0
211212  4  0  0  0  0
211213  4  0  0  0  0
213214  1  0  0  0  0
214215  4  0  0  0  0
215216  4  0  0  0  0
216217  4  0  0  0  0
217218  1  0  0  0  0
218219  2  0  0  0  0
217220  4  0  0  0  0
214221  4  0  0  0  0
220221  4  0  0  0  0
213222  4  0  0  0  0
222223  4  0  0  0  0
223224  2  0  0  0  0
187225  4  0  0  0  0
224225  4  0  0  0  0
186226  1  0  0  0  0
222226  4  0  0  0  0
225226  4  0  0  0  0
189227  1  0  0  0  0
190228  1  0  0  0  0
195229  1  0  0  0  0
196230  1  0  0  0  0
198231  1  0  0  0  0
200232  1  0  0  0  0
201233  1  0  0  0  0
203234  1  0  0  0  0
204235  1  0  0  0  0
209236  1  0  0  0  0
210237  1  0  0  0  0
215238  1  0  0  0  0
216239  1  0  0  0  0
218240  1  0  0  0  0
220241  1  0  0  0  0
221242  1  0  0  0  0
223243  1  0  0  0  0
224244  1  0  0  0  0
M  END
