 xtb: 6.5.1 (b24c23e)
          07302216253D

236275  0     0  0            999 V2000
   54.4510    0.0489    0.0131 Zn  0  0  0  0  0  0  0  0  0  0  0  0
   51.0380    0.0555    0.0447 C   0  0  0  0  0  0  0  0  0  0  0  0
   51.6614    1.2868    0.2060 C   0  0  0  0  0  0  0  0  0  0  0  0
   50.9806    2.5427    0.3560 C   0  0  0  0  0  0  0  0  0  0  0  0
   51.9344    3.4997    0.4729 C   0  0  0  0  0  0  0  0  0  0  0  0
   53.2108    2.8378    0.4059 C   0  0  0  0  0  0  0  0  0  0  0  0
   53.0098    1.4994    0.2383 N   0  0  0  0  0  0  0  0  0  0  0  0
   54.4589    3.4696    0.4620 C   0  0  0  0  0  0  0  0  0  0  0  0
   54.4621    4.9412    0.6522 C   0  0  0  0  0  0  0  0  0  0  0  0
   53.9327    5.5052    1.8154 C   0  0  0  0  0  0  0  0  0  0  0  0
   53.9357    6.8763    1.9990 C   0  0  0  0  0  0  0  0  0  0  0  0
   54.4661    7.7142    1.0135 C   0  0  0  0  0  0  0  0  0  0  0  0
   54.4685    9.1257    1.1975 C   0  0  0  0  0  0  0  0  0  0  0  0
   54.4708   10.2667    1.3470 N   0  0  0  0  0  0  0  0  0  0  0  0
   54.9937    7.1552   -0.1544 C   0  0  0  0  0  0  0  0  0  0  0  0
   54.9924    5.7828   -0.3283 C   0  0  0  0  0  0  0  0  0  0  0  0
   55.7025    2.8369    0.3531 C   0  0  0  0  0  0  0  0  0  0  0  0
   56.9765    3.4945    0.4428 C   0  0  0  0  0  0  0  0  0  0  0  0
   57.9295    2.5378    0.3080 C   0  0  0  0  0  0  0  0  0  0  0  0
   55.9071    1.4943    0.1789 N   0  0  0  0  0  0  0  0  0  0  0  0
   57.2517    1.2850    0.1498 C   0  0  0  0  0  0  0  0  0  0  0  0
   57.8927    0.0401   -0.0109 C   0  0  0  0  0  0  0  0  0  0  0  0
   57.2438   -1.2013   -0.1663 C   0  0  0  0  0  0  0  0  0  0  0  0
   57.9134   -2.4565   -0.3399 C   0  0  0  0  0  0  0  0  0  0  0  0
   56.9540   -3.4078   -0.4672 C   0  0  0  0  0  0  0  0  0  0  0  0
   55.6845   -2.7447   -0.3559 C   0  0  0  0  0  0  0  0  0  0  0  0
   55.8979   -1.4040   -0.1777 N   0  0  0  0  0  0  0  0  0  0  0  0
   54.4364   -3.3708   -0.4493 C   0  0  0  0  0  0  0  0  0  0  0  0
   54.4295   -4.8406   -0.6538 C   0  0  0  0  0  0  0  0  0  0  0  0
   53.8816   -5.3889   -1.8159 C   0  0  0  0  0  0  0  0  0  0  0  0
   53.8769   -6.7578   -2.0156 C   0  0  0  0  0  0  0  0  0  0  0  0
   54.4178   -7.6090   -1.0474 C   0  0  0  0  0  0  0  0  0  0  0  0
   54.4139   -9.0180   -1.2492 C   0  0  0  0  0  0  0  0  0  0  0  0
   54.4107  -10.1572   -1.4120 N   0  0  0  0  0  0  0  0  0  0  0  0
   54.9629   -7.0657    0.1199 C   0  0  0  0  0  0  0  0  0  0  0  0
   54.9693   -5.6954    0.3098 C   0  0  0  0  0  0  0  0  0  0  0  0
   53.1924   -2.7340   -0.3672 C   0  0  0  0  0  0  0  0  0  0  0  0
   51.9123   -3.3906   -0.4136 C   0  0  0  0  0  0  0  0  0  0  0  0
   50.9647   -2.4306   -0.2731 C   0  0  0  0  0  0  0  0  0  0  0  0
   51.6533   -1.1780   -0.1303 C   0  0  0  0  0  0  0  0  0  0  0  0
   53.0000   -1.3957   -0.1888 N   0  0  0  0  0  0  0  0  0  0  0  0
   49.9525    0.0577    0.0551 H   0  0  0  0  0  0  0  0  0  0  0  0
   49.9089    2.6653    0.3611 H   0  0  0  0  0  0  0  0  0  0  0  0
   51.7912    4.5627    0.5832 H   0  0  0  0  0  0  0  0  0  0  0  0
   53.5311    4.8581    2.5870 H   0  0  0  0  0  0  0  0  0  0  0  0
   53.5288    7.3059    2.9071 H   0  0  0  0  0  0  0  0  0  0  0  0
   55.4017    7.8019   -0.9225 H   0  0  0  0  0  0  0  0  0  0  0  0
   55.3915    5.3539   -1.2406 H   0  0  0  0  0  0  0  0  0  0  0  0
   57.1231    4.5511    0.5986 H   0  0  0  0  0  0  0  0  0  0  0  0
   58.9996    2.6657    0.3139 H   0  0  0  0  0  0  0  0  0  0  0  0
   58.9827   -2.5893   -0.3617 H   0  0  0  0  0  0  0  0  0  0  0  0
   57.0933   -4.4643   -0.6306 H   0  0  0  0  0  0  0  0  0  0  0  0
   53.4717   -4.7312   -2.5741 H   0  0  0  0  0  0  0  0  0  0  0  0
   53.4561   -7.1751   -2.9230 H   0  0  0  0  0  0  0  0  0  0  0  0
   55.3788   -7.7229    0.8747 H   0  0  0  0  0  0  0  0  0  0  0  0
   55.3824   -5.2787    1.2215 H   0  0  0  0  0  0  0  0  0  0  0  0
   51.7631   -4.4524   -0.5271 H   0  0  0  0  0  0  0  0  0  0  0  0
   49.8926   -2.5489   -0.2582 H   0  0  0  0  0  0  0  0  0  0  0  0
   87.2235    0.0046    0.0308 Zn  0  0  0  0  0  0  0  0  0  0  0  0
   90.6345   -0.0038    0.0653 C   0  0  0  0  0  0  0  0  0  0  0  0
   90.0104   -1.2298    0.2614 C   0  0  0  0  0  0  0  0  0  0  0  0
   90.6903   -2.4818    0.4437 C   0  0  0  0  0  0  0  0  0  0  0  0
   89.7360   -3.4318    0.6055 C   0  0  0  0  0  0  0  0  0  0  0  0
   88.4602   -2.7691    0.5345 C   0  0  0  0  0  0  0  0  0  0  0  0
   88.6620   -1.4382    0.3150 N   0  0  0  0  0  0  0  0  0  0  0  0
   87.2115   -3.3924    0.6489 C   0  0  0  0  0  0  0  0  0  0  0  0
   87.2049   -4.8501    0.9224 C   0  0  0  0  0  0  0  0  0  0  0  0
   87.7784   -5.3540    2.0923 C   0  0  0  0  0  0  0  0  0  0  0  0
   87.7697   -6.7122    2.3542 C   0  0  0  0  0  0  0  0  0  0  0  0
   87.1885   -7.5980    1.4419 C   0  0  0  0  0  0  0  0  0  0  0  0
   87.1790   -8.9965    1.7071 C   0  0  0  0  0  0  0  0  0  0  0  0
   87.1716  -10.1270    1.9215 N   0  0  0  0  0  0  0  0  0  0  0  0
   86.6163   -7.0998    0.2676 C   0  0  0  0  0  0  0  0  0  0  0  0
   86.6238   -5.7397    0.0154 C   0  0  0  0  0  0  0  0  0  0  0  0
   85.9684   -2.7594    0.5324 C   0  0  0  0  0  0  0  0  0  0  0  0
   84.6935   -3.3962    0.7156 C   0  0  0  0  0  0  0  0  0  0  0  0
   83.7422   -2.4453    0.5332 C   0  0  0  0  0  0  0  0  0  0  0  0
   85.7673   -1.4335    0.2575 N   0  0  0  0  0  0  0  0  0  0  0  0
   84.4237   -1.2180    0.2436 C   0  0  0  0  0  0  0  0  0  0  0  0
   83.7867    0.0138   -0.0041 C   0  0  0  0  0  0  0  0  0  0  0  0
   84.4348    1.2424   -0.2386 C   0  0  0  0  0  0  0  0  0  0  0  0
   83.7656    2.4740   -0.5384 C   0  0  0  0  0  0  0  0  0  0  0  0
   84.7253    3.4206   -0.6982 C   0  0  0  0  0  0  0  0  0  0  0  0
   85.9930    2.7766   -0.4913 C   0  0  0  0  0  0  0  0  0  0  0  0
   85.7794    1.4509   -0.2250 N   0  0  0  0  0  0  0  0  0  0  0  0
   87.2413    3.4035   -0.5802 C   0  0  0  0  0  0  0  0  0  0  0  0
   87.2477    4.8629   -0.8445 C   0  0  0  0  0  0  0  0  0  0  0  0
   87.8446    5.3719   -2.0003 C   0  0  0  0  0  0  0  0  0  0  0  0
   87.8493    6.7322   -2.2515 C   0  0  0  0  0  0  0  0  0  0  0  0
   87.2583    7.6149   -1.3425 C   0  0  0  0  0  0  0  0  0  0  0  0
   87.2629    9.0154   -1.5966 C   0  0  0  0  0  0  0  0  0  0  0  0
   87.2661   10.1475   -1.8029 N   0  0  0  0  0  0  0  0  0  0  0  0
   86.6624    7.1113   -0.1822 C   0  0  0  0  0  0  0  0  0  0  0  0
   86.6565    5.7493    0.0591 C   0  0  0  0  0  0  0  0  0  0  0  0
   88.4843    2.7733   -0.4436 C   0  0  0  0  0  0  0  0  0  0  0  0
   89.7647    3.4294   -0.4885 C   0  0  0  0  0  0  0  0  0  0  0  0
   90.7106    2.4741   -0.3099 C   0  0  0  0  0  0  0  0  0  0  0  0
   90.0207    1.2254   -0.1428 C   0  0  0  0  0  0  0  0  0  0  0  0
   88.6748    1.4409   -0.2228 N   0  0  0  0  0  0  0  0  0  0  0  0
   91.7201   -0.0065    0.0763 H   0  0  0  0  0  0  0  0  0  0  0  0
   91.7617   -2.6070    0.4386 H   0  0  0  0  0  0  0  0  0  0  0  0
   89.8785   -4.4911    0.7480 H   0  0  0  0  0  0  0  0  0  0  0  0
   88.2185   -4.6691    2.8085 H   0  0  0  0  0  0  0  0  0  0  0  0
   88.2108   -7.0944    3.2674 H   0  0  0  0  0  0  0  0  0  0  0  0
   86.1686   -7.7839   -0.4438 H   0  0  0  0  0  0  0  0  0  0  0  0
   86.1896   -5.3584   -0.9019 H   0  0  0  0  0  0  0  0  0  0  0  0
   84.5460   -4.4338    0.9680 H   0  0  0  0  0  0  0  0  0  0  0  0
   82.6721   -2.5571    0.6019 H   0  0  0  0  0  0  0  0  0  0  0  0
   82.6977    2.5916   -0.6285 H   0  0  0  0  0  0  0  0  0  0  0  0
   84.5885    4.4599   -0.9498 H   0  0  0  0  0  0  0  0  0  0  0  0
   88.2927    4.6898   -2.7141 H   0  0  0  0  0  0  0  0  0  0  0  0
   88.3088    7.1186   -3.1538 H   0  0  0  0  0  0  0  0  0  0  0  0
   86.2069    7.7929    0.5267 H   0  0  0  0  0  0  0  0  0  0  0  0
   86.2037    5.3637    0.9657 H   0  0  0  0  0  0  0  0  0  0  0  0
   89.9155    4.4881   -0.6267 H   0  0  0  0  0  0  0  0  0  0  0  0
   91.7824    2.5937   -0.2837 H   0  0  0  0  0  0  0  0  0  0  0  0
   59.3035    0.0369   -0.0176 C   0  0  0  0  0  0  0  0  0  0  0  0
   60.5211    0.0346   -0.0216 C   0  0  0  0  0  0  0  0  0  0  0  0
   70.2361    0.0401   -0.0698 C   0  0  0  0  0  0  0  0  0  0  0  0
   71.4537    0.0383   -0.0717 C   0  0  0  0  0  0  0  0  0  0  0  0
   81.1599    0.0199   -0.0245 C   0  0  0  0  0  0  0  0  0  0  0  0
   82.3769    0.0174   -0.0165 C   0  0  0  0  0  0  0  0  0  0  0  0
   65.3794    0.0365   -0.0450 Zn  0  0  0  0  0  0  0  0  0  0  0  0
   61.9315    0.0340   -0.0272 C   0  0  0  0  0  0  0  0  0  0  0  0
   62.5756   -1.0448   -0.6659 C   0  0  0  0  0  0  0  0  0  0  0  0
   61.9006   -2.1418   -1.2931 C   0  0  0  0  0  0  0  0  0  0  0  0
   62.8560   -2.9708   -1.7855 C   0  0  0  0  0  0  0  0  0  0  0  0
   64.1271   -2.3782   -1.4779 C   0  0  0  0  0  0  0  0  0  0  0  0
   63.9206   -1.2118   -0.7914 N   0  0  0  0  0  0  0  0  0  0  0  0
   65.3731   -2.9214   -1.8104 C   0  0  0  0  0  0  0  0  0  0  0  0
   65.3731   -4.2004   -2.5632 C   0  0  0  0  0  0  0  0  0  0  0  0
   64.8092   -4.2768   -3.8387 C   0  0  0  0  0  0  0  0  0  0  0  0
   64.8095   -5.4699   -4.5391 C   0  0  0  0  0  0  0  0  0  0  0  0
   65.3723   -6.6165   -3.9706 C   0  0  0  0  0  0  0  0  0  0  0  0
   65.3705   -7.8468   -4.6865 C   0  0  0  0  0  0  0  0  0  0  0  0
   65.3692   -8.8415   -5.2652 N   0  0  0  0  0  0  0  0  0  0  0  0
   65.9372   -6.5456   -2.6937 C   0  0  0  0  0  0  0  0  0  0  0  0
   65.9387   -5.3478   -2.0020 C   0  0  0  0  0  0  0  0  0  0  0  0
   66.6211   -2.3710   -1.4988 C   0  0  0  0  0  0  0  0  0  0  0  0
   67.8880   -2.9053   -1.9130 C   0  0  0  0  0  0  0  0  0  0  0  0
   68.8474   -2.0749   -1.4305 C   0  0  0  0  0  0  0  0  0  0  0  0
   66.8335   -1.2225   -0.7848 N   0  0  0  0  0  0  0  0  0  0  0  0
   68.1783   -1.0257   -0.7204 C   0  0  0  0  0  0  0  0  0  0  0  0
   68.8272    0.0398   -0.0646 C   0  0  0  0  0  0  0  0  0  0  0  0
   68.1835    1.1039    0.5988 C   0  0  0  0  0  0  0  0  0  0  0  0
   68.8588    2.1524    1.3040 C   0  0  0  0  0  0  0  0  0  0  0  0
   67.9034    2.9789    1.8010 C   0  0  0  0  0  0  0  0  0  0  0  0
   66.6328    2.4433    1.4000 C   0  0  0  0  0  0  0  0  0  0  0  0
   66.8392    1.2980    0.6793 N   0  0  0  0  0  0  0  0  0  0  0  0
   65.3873    2.9888    1.7299 C   0  0  0  0  0  0  0  0  0  0  0  0
   65.3931    4.2608    2.4941 C   0  0  0  0  0  0  0  0  0  0  0  0
   64.8417    4.3234    3.7759 C   0  0  0  0  0  0  0  0  0  0  0  0
   64.8495    5.5084    4.4897 C   0  0  0  0  0  0  0  0  0  0  0  0
   65.4074    6.6611    3.9285 C   0  0  0  0  0  0  0  0  0  0  0  0
   65.4150    7.8831    4.6584 C   0  0  0  0  0  0  0  0  0  0  0  0
   65.4194    8.8696    5.2506 N   0  0  0  0  0  0  0  0  0  0  0  0
   65.9589    6.6045    2.6450 C   0  0  0  0  0  0  0  0  0  0  0  0
   65.9528    5.4144    1.9398 C   0  0  0  0  0  0  0  0  0  0  0  0
   64.1387    2.4446    1.4084 C   0  0  0  0  0  0  0  0  0  0  0  0
   62.8700    3.0337    1.7323 C   0  0  0  0  0  0  0  0  0  0  0  0
   61.9108    2.2055    1.2461 C   0  0  0  0  0  0  0  0  0  0  0  0
   62.5807    1.1122    0.6073 C   0  0  0  0  0  0  0  0  0  0  0  0
   63.9267    1.2809    0.7192 N   0  0  0  0  0  0  0  0  0  0  0  0
   60.8308   -2.2601   -1.3478 H   0  0  0  0  0  0  0  0  0  0  0  0
   62.7123   -3.9050   -2.3038 H   0  0  0  0  0  0  0  0  0  0  0  0
   64.3824   -3.3871   -4.2879 H   0  0  0  0  0  0  0  0  0  0  0  0
   64.3750   -5.5201   -5.5307 H   0  0  0  0  0  0  0  0  0  0  0  0
   66.3720   -7.4331   -2.2487 H   0  0  0  0  0  0  0  0  0  0  0  0
   66.3679   -5.2989   -1.0075 H   0  0  0  0  0  0  0  0  0  0  0  0
   68.0246   -3.7921   -2.5105 H   0  0  0  0  0  0  0  0  0  0  0  0
   69.9152   -2.1544   -1.5547 H   0  0  0  0  0  0  0  0  0  0  0  0
   69.9278    2.2340    1.4158 H   0  0  0  0  0  0  0  0  0  0  0  0
   68.0456    3.8640    2.3998 H   0  0  0  0  0  0  0  0  0  0  0  0
   64.4191    3.4287    4.2194 H   0  0  0  0  0  0  0  0  0  0  0  0
   64.4250    5.5476    5.4861 H   0  0  0  0  0  0  0  0  0  0  0  0
   66.3895    7.4967    2.2056 H   0  0  0  0  0  0  0  0  0  0  0  0
   66.3716    5.3768    0.9404 H   0  0  0  0  0  0  0  0  0  0  0  0
   62.7304    3.9655    2.2560 H   0  0  0  0  0  0  0  0  0  0  0  0
   60.8415    2.3216    1.3134 H   0  0  0  0  0  0  0  0  0  0  0  0
   76.3073    0.0294   -0.0499 Zn  0  0  0  0  0  0  0  0  0  0  0  0
   72.8626    0.0362   -0.0686 C   0  0  0  0  0  0  0  0  0  0  0  0
   73.5075   -1.1964   -0.2955 C   0  0  0  0  0  0  0  0  0  0  0  0
   72.8345   -2.4489   -0.4716 C   0  0  0  0  0  0  0  0  0  0  0  0
   73.7906   -3.3899   -0.6803 C   0  0  0  0  0  0  0  0  0  0  0  0
   75.0592   -2.7185   -0.6380 C   0  0  0  0  0  0  0  0  0  0  0  0
   74.8513   -1.3888   -0.3873 N   0  0  0  0  0  0  0  0  0  0  0  0
   76.3049   -3.3334   -0.8082 C   0  0  0  0  0  0  0  0  0  0  0  0
   76.3032   -4.7797   -1.1362 C   0  0  0  0  0  0  0  0  0  0  0  0
   75.6880   -5.2408   -2.3027 C   0  0  0  0  0  0  0  0  0  0  0  0
   75.6877   -6.5884   -2.6149 C   0  0  0  0  0  0  0  0  0  0  0  0
   76.3015   -7.5065   -1.7576 C   0  0  0  0  0  0  0  0  0  0  0  0
   76.3018   -8.8942   -2.0748 C   0  0  0  0  0  0  0  0  0  0  0  0
   76.3026  -10.0163   -2.3303 N   0  0  0  0  0  0  0  0  0  0  0  0
   76.9154   -7.0512   -0.5869 C   0  0  0  0  0  0  0  0  0  0  0  0
   76.9168   -5.7015   -0.2844 C   0  0  0  0  0  0  0  0  0  0  0  0
   77.5520   -2.7076   -0.6970 C   0  0  0  0  0  0  0  0  0  0  0  0
   78.8205   -3.3354   -0.9403 C   0  0  0  0  0  0  0  0  0  0  0  0
   79.7778   -2.3977   -0.7223 C   0  0  0  0  0  0  0  0  0  0  0  0
   77.7608   -1.3989   -0.3549 N   0  0  0  0  0  0  0  0  0  0  0  0
   79.1052   -1.1883   -0.3512 C   0  0  0  0  0  0  0  0  0  0  0  0
   79.7505    0.0229   -0.0326 C   0  0  0  0  0  0  0  0  0  0  0  0
   79.1068    1.2362    0.2809 C   0  0  0  0  0  0  0  0  0  0  0  0
   79.7804    2.4417    0.6628 C   0  0  0  0  0  0  0  0  0  0  0  0
   78.8245    3.3819    0.8761 C   0  0  0  0  0  0  0  0  0  0  0  0
   77.5560    2.7599    0.6183 C   0  0  0  0  0  0  0  0  0  0  0  0
   77.7633    1.4519    0.2724 N   0  0  0  0  0  0  0  0  0  0  0  0
   76.3100    3.3893    0.7208 C   0  0  0  0  0  0  0  0  0  0  0  0
   76.3086    4.8318    1.0652 C   0  0  0  0  0  0  0  0  0  0  0  0
   75.6816    5.2788    2.2310 C   0  0  0  0  0  0  0  0  0  0  0  0
   75.6814    6.6219    2.5616 C   0  0  0  0  0  0  0  0  0  0  0  0
   76.3072    7.5498    1.7236 C   0  0  0  0  0  0  0  0  0  0  0  0
   76.3084    8.9331    2.0595 C   0  0  0  0  0  0  0  0  0  0  0  0
   76.3074   10.0507    2.3334 N   0  0  0  0  0  0  0  0  0  0  0  0
   76.9327    7.1087    0.5537 C   0  0  0  0  0  0  0  0  0  0  0  0
   76.9338    5.7631    0.2327 C   0  0  0  0  0  0  0  0  0  0  0  0
   75.0642    2.7803    0.5315 C   0  0  0  0  0  0  0  0  0  0  0  0
   73.7980    3.4570    0.5613 C   0  0  0  0  0  0  0  0  0  0  0  0
   72.8405    2.5210    0.3372 C   0  0  0  0  0  0  0  0  0  0  0  0
   73.5101    1.2662    0.1650 C   0  0  0  0  0  0  0  0  0  0  0  0
   74.8536    1.4526    0.2726 N   0  0  0  0  0  0  0  0  0  0  0  0
   71.7668   -2.5891   -0.4252 H   0  0  0  0  0  0  0  0  0  0  0  0
   73.6501   -4.4479   -0.8322 H   0  0  0  0  0  0  0  0  0  0  0  0
   75.2219   -4.5306   -2.9764 H   0  0  0  0  0  0  0  0  0  0  0  0
   75.2138   -6.9372   -3.5250 H   0  0  0  0  0  0  0  0  0  0  0  0
   77.3886   -7.7605    0.0821 H   0  0  0  0  0  0  0  0  0  0  0  0
   77.3832   -5.3539    0.6306 H   0  0  0  0  0  0  0  0  0  0  0  0
   78.9601   -4.3572   -1.2541 H   0  0  0  0  0  0  0  0  0  0  0  0
   80.8462   -2.5071   -0.8169 H   0  0  0  0  0  0  0  0  0  0  0  0
   80.8483    2.5468    0.7676 H   0  0  0  0  0  0  0  0  0  0  0  0
   78.9651    4.4020    1.1953 H   0  0  0  0  0  0  0  0  0  0  0  0
   75.2060    4.5607    2.8896 H   0  0  0  0  0  0  0  0  0  0  0  0
   75.1984    6.9597    3.4711 H   0  0  0  0  0  0  0  0  0  0  0  0
   77.4152    7.8257   -0.1003 H   0  0  0  0  0  0  0  0  0  0  0  0
   77.4092    5.4268   -0.6818 H   0  0  0  0  0  0  0  0  0  0  0  0
   73.6603    4.5150    0.7155 H   0  0  0  0  0  0  0  0  0  0  0  0
   71.7740    2.6662    0.2780 H   0  0  0  0  0  0  0  0  0  0  0  0
  2  3  4  0  0  0  0
  3  4  1  0  0  0  0
  4  5  2  0  0  0  0
  5  6  4  0  0  0  0
  1  7  1  0  0  0  0
  3  7  4  0  0  0  0
  6  7  4  0  0  0  0
  6  8  4  0  0  0  0
  8  9  1  0  0  0  0
  9 10  4  0  0  0  0
 10 11  4  0  0  0  0
 11 12  4  0  0  0  0
 12 13  1  0  0  0  0
 13 14  3  0  0  0  0
 12 15  4  0  0  0  0
  9 16  4  0  0  0  0
 15 16  4  0  0  0  0
  8 17  4  0  0  0  0
 17 18  4  0  0  0  0
 18 19  2  0  0  0  0
  1 20  1  0  0  0  0
 17 20  4  0  0  0  0
 19 21  4  0  0  0  0
 20 21  4  0  0  0  0
 21 22  4  0  0  0  0
 22 23  4  0  0  0  0
 23 24  4  0  0  0  0
 24 25  2  0  0  0  0
 25 26  4  0  0  0  0
  1 27  1  0  0  0  0
 23 27  4  0  0  0  0
 26 27  4  0  0  0  0
 26 28  4  0  0  0  0
 28 29  1  0  0  0  0
 29 30  4  0  0  0  0
 30 31  4  0  0  0  0
 31 32  4  0  0  0  0
 32 33  1  0  0  0  0
 33 34  3  0  0  0  0
 32 35  4  0  0  0  0
 29 36  4  0  0  0  0
 35 36  4  0  0  0  0
 28 37  4  0  0  0  0
 37 38  4  0  0  0  0
 38 39  2  0  0  0  0
  2 40  4  0  0  0  0
 39 40  1  0  0  0  0
  1 41  1  0  0  0  0
 37 41  4  0  0  0  0
 40 41  4  0  0  0  0
  2 42  1  0  0  0  0
  4 43  1  0  0  0  0
  5 44  1  0  0  0  0
 10 45  1  0  0  0  0
 11 46  1  0  0  0  0
 15 47  1  0  0  0  0
 16 48  1  0  0  0  0
 18 49  1  0  0  0  0
 19 50  1  0  0  0  0
 24 51  1  0  0  0  0
 25 52  1  0  0  0  0
 30 53  1  0  0  0  0
 31 54  1  0  0  0  0
 35 55  1  0  0  0  0
 36 56  1  0  0  0  0
 38 57  1  0  0  0  0
 39 58  1  0  0  0  0
 60 61  4  0  0  0  0
 61 62  1  0  0  0  0
 62 63  2  0  0  0  0
 63 64  4  0  0  0  0
 59 65  1  0  0  0  0
 61 65  4  0  0  0  0
 64 65  4  0  0  0  0
 64 66  4  0  0  0  0
 66 67  1  0  0  0  0
 67 68  4  0  0  0  0
 68 69  4  0  0  0  0
 69 70  4  0  0  0  0
 70 71  1  0  0  0  0
 71 72  3  0  0  0  0
 70 73  4  0  0  0  0
 67 74  4  0  0  0  0
 73 74  4  0  0  0  0
 66 75  4  0  0  0  0
 75 76  4  0  0  0  0
 76 77  2  0  0  0  0
 59 78  1  0  0  0  0
 75 78  4  0  0  0  0
 77 79  4  0  0  0  0
 78 79  4  0  0  0  0
 79 80  4  0  0  0  0
 80 81  4  0  0  0  0
 81 82  4  0  0  0  0
 82 83  2  0  0  0  0
 83 84  4  0  0  0  0
 59 85  1  0  0  0  0
 81 85  4  0  0  0  0
 84 85  4  0  0  0  0
 84 86  4  0  0  0  0
 86 87  1  0  0  0  0
 87 88  4  0  0  0  0
 88 89  4  0  0  0  0
 89 90  4  0  0  0  0
 90 91  1  0  0  0  0
 91 92  3  0  0  0  0
 90 93  4  0  0  0  0
 87 94  4  0  0  0  0
 93 94  4  0  0  0  0
 86 95  4  0  0  0  0
 95 96  4  0  0  0  0
 96 97  2  0  0  0  0
 60 98  4  0  0  0  0
 97 98  1  0  0  0  0
 59 99  1  0  0  0  0
 95 99  4  0  0  0  0
 98 99  4  0  0  0  0
 60100  1  0  0  0  0
 62101  1  0  0  0  0
 63102  1  0  0  0  0
 68103  1  0  0  0  0
 69104  1  0  0  0  0
 73105  1  0  0  0  0
 74106  1  0  0  0  0
 76107  1  0  0  0  0
 77108  1  0  0  0  0
 82109  1  0  0  0  0
 83110  1  0  0  0  0
 88111  1  0  0  0  0
 89112  1  0  0  0  0
 93113  1  0  0  0  0
 94114  1  0  0  0  0
 96115  1  0  0  0  0
 97116  1  0  0  0  0
 22117  4  0  0  0  0
117118  3  0  0  0  0
119120  3  0  0  0  0
 80122  4  0  0  0  0
121122  3  0  0  0  0
118124  4  0  0  0  0
124125  4  0  0  0  0
125126  4  0  0  0  0
126127  2  0  0  0  0
127128  4  0  0  0  0
123129  1  0  0  0  0
125129  4  0  0  0  0
128129  4  0  0  0  0
128130  4  0  0  0  0
130131  1  0  0  0  0
131132  4  0  0  0  0
132133  4  0  0  0  0
133134  4  0  0  0  0
134135  1  0  0  0  0
135136  3  0  0  0  0
134137  4  0  0  0  0
131138  4  0  0  0  0
137138  4  0  0  0  0
130139  4  0  0  0  0
139140  4  0  0  0  0
140141  2  0  0  0  0
123142  1  0  0  0  0
139142  4  0  0  0  0
141143  4  0  0  0  0
142143  4  0  0  0  0
119144  4  0  0  0  0
143144  4  0  0  0  0
144145  4  0  0  0  0
145146  4  0  0  0  0
146147  2  0  0  0  0
147148  4  0  0  0  0
123149  1  0  0  0  0
145149  4  0  0  0  0
148149  4  0  0  0  0
148150  4  0  0  0  0
150151  1  0  0  0  0
151152  4  0  0  0  0
152153  4  0  0  0  0
153154  4  0  0  0  0
154155  1  0  0  0  0
155156  3  0  0  0  0
154157  4  0  0  0  0
151158  4  0  0  0  0
157158  4  0  0  0  0
150159  4  0  0  0  0
159160  4  0  0  0  0
160161  2  0  0  0  0
124162  4  0  0  0  0
161162  4  0  0  0  0
123163  1  0  0  0  0
159163  4  0  0  0  0
162163  4  0  0  0  0
126164  1  0  0  0  0
127165  1  0  0  0  0
132166  1  0  0  0  0
133167  1  0  0  0  0
137168  1  0  0  0  0
138169  1  0  0  0  0
140170  1  0  0  0  0
141171  1  0  0  0  0
146172  1  0  0  0  0
147173  1  0  0  0  0
152174  1  0  0  0  0
153175  1  0  0  0  0
157176  1  0  0  0  0
158177  1  0  0  0  0
160178  1  0  0  0  0
161179  1  0  0  0  0
120181  4  0  0  0  0
181182  4  0  0  0  0
182183  4  0  0  0  0
183184  2  0  0  0  0
184185  4  0  0  0  0
180186  1  0  0  0  0
182186  4  0  0  0  0
185186  4  0  0  0  0
185187  4  0  0  0  0
187188  1  0  0  0  0
188189  4  0  0  0  0
189190  4  0  0  0  0
190191  4  0  0  0  0
191192  1  0  0  0  0
192193  3  0  0  0  0
191194  4  0  0  0  0
188195  4  0  0  0  0
194195  4  0  0  0  0
187196  4  0  0  0  0
196197  4  0  0  0  0
197198  2  0  0  0  0
180199  1  0  0  0  0
196199  4  0  0  0  0
198200  4  0  0  0  0
199200  4  0  0  0  0
121201  4  0  0  0  0
200201  4  0  0  0  0
201202  4  0  0  0  0
202203  4  0  0  0  0
203204  2  0  0  0  0
204205  4  0  0  0  0
180206  1  0  0  0  0
202206  4  0  0  0  0
205206  4  0  0  0  0
205207  4  0  0  0  0
207208  1  0  0  0  0
208209  4  0  0  0  0
209210  4  0  0  0  0
210211  4  0  0  0  0
211212  1  0  0  0  0
212213  3  0  0  0  0
211214  4  0  0  0  0
208215  4  0  0  0  0
214215  4  0  0  0  0
207216  4  0  0  0  0
216217  4  0  0  0  0
217218  2  0  0  0  0
181219  4  0  0  0  0
218219  4  0  0  0  0
180220  1  0  0  0  0
216220  4  0  0  0  0
219220  4  0  0  0  0
183221  1  0  0  0  0
184222  1  0  0  0  0
189223  1  0  0  0  0
190224  1  0  0  0  0
194225  1  0  0  0  0
195226  1  0  0  0  0
197227  1  0  0  0  0
198228  1  0  0  0  0
203229  1  0  0  0  0
204230  1  0  0  0  0
209231  1  0  0  0  0
210232  1  0  0  0  0
214233  1  0  0  0  0
215234  1  0  0  0  0
217235  1  0  0  0  0
218236  1  0  0  0  0
M  END
