 xtb: 6.5.1 (b24c23e)
          07292220413D

248287  0     0  0            999 V2000
   37.9786    0.3930    0.2634 Fe  0  0  0  0  0  0  0  0  0  0  0  0
   34.5897    0.3246    0.2320 C   0  0  0  0  0  0  0  0  0  0  0  0
   35.2582   -0.8762    0.3520 C   0  0  0  0  0  0  0  0  0  0  0  0
   34.5989   -2.1397    0.4910 C   0  0  0  0  0  0  0  0  0  0  0  0
   35.5672   -3.0858    0.4774 C   0  0  0  0  0  0  0  0  0  0  0  0
   36.8171   -2.3990    0.3193 C   0  0  0  0  0  0  0  0  0  0  0  0
   36.6163   -1.0449    0.2837 N   0  0  0  0  0  0  0  0  0  0  0  0
   38.0442   -3.0375    0.1816 C   0  0  0  0  0  0  0  0  0  0  0  0
   38.0757   -4.5183    0.1292 C   0  0  0  0  0  0  0  0  0  0  0  0
   37.4493   -5.1991   -0.8443 C   0  0  0  0  0  0  0  0  0  0  0  0
   37.4580   -6.7018   -0.9250 C   0  0  0  0  0  0  0  0  0  0  0  0
   38.4425   -7.2817   -0.0104 N   0  0  0  0  0  0  0  0  0  0  0  0
   38.9368   -6.5782    1.0505 C   0  0  0  0  0  0  0  0  0  0  0  0
   38.8168   -5.2403    1.1497 C   0  0  0  0  0  0  0  0  0  0  0  0
   39.2452   -2.3464    0.0905 C   0  0  0  0  0  0  0  0  0  0  0  0
   40.5184   -2.9793   -0.0875 C   0  0  0  0  0  0  0  0  0  0  0  0
   41.4521   -1.9988   -0.0454 C   0  0  0  0  0  0  0  0  0  0  0  0
   39.4002   -0.9853    0.1971 N   0  0  0  0  0  0  0  0  0  0  0  0
   40.7469   -0.7702    0.1467 C   0  0  0  0  0  0  0  0  0  0  0  0
   41.3872    0.4615    0.3150 C   0  0  0  0  0  0  0  0  0  0  0  0
   40.6929    1.6670    0.4574 C   0  0  0  0  0  0  0  0  0  0  0  0
   41.3421    2.9242    0.6619 C   0  0  0  0  0  0  0  0  0  0  0  0
   40.3695    3.8669    0.6644 C   0  0  0  0  0  0  0  0  0  0  0  0
   39.1288    3.1823    0.4528 C   0  0  0  0  0  0  0  0  0  0  0  0
   39.3411    1.8278    0.3620 N   0  0  0  0  0  0  0  0  0  0  0  0
   37.9040    3.8239    0.3253 C   0  0  0  0  0  0  0  0  0  0  0  0
   37.8753    5.3050    0.3670 C   0  0  0  0  0  0  0  0  0  0  0  0
   37.2017    5.9669    1.3219 C   0  0  0  0  0  0  0  0  0  0  0  0
   37.1483    7.4692    1.3905 C   0  0  0  0  0  0  0  0  0  0  0  0
   38.1315    8.0811    0.4956 N   0  0  0  0  0  0  0  0  0  0  0  0
   38.6763    7.3912   -0.5494 C   0  0  0  0  0  0  0  0  0  0  0  0
   38.6100    6.0491   -0.6423 C   0  0  0  0  0  0  0  0  0  0  0  0
   36.7068    3.1355    0.1664 C   0  0  0  0  0  0  0  0  0  0  0  0
   35.4333    3.7704   -0.0183 C   0  0  0  0  0  0  0  0  0  0  0  0
   34.5039    2.7861   -0.0393 C   0  0  0  0  0  0  0  0  0  0  0  0
   35.2110    1.5511    0.1193 C   0  0  0  0  0  0  0  0  0  0  0  0
   36.5599    1.7747    0.2085 N   0  0  0  0  0  0  0  0  0  0  0  0
   33.5057    0.3027    0.2235 H   0  0  0  0  0  0  0  0  0  0  0  0
   33.5319   -2.2661    0.5860 H   0  0  0  0  0  0  0  0  0  0  0  0
   35.4579   -4.1541    0.5716 H   0  0  0  0  0  0  0  0  0  0  0  0
   36.8941   -4.6934   -1.6257 H   0  0  0  0  0  0  0  0  0  0  0  0
   37.7061   -7.0250   -1.9461 H   0  0  0  0  0  0  0  0  0  0  0  0
   36.4531   -7.1012   -0.6949 H   0  0  0  0  0  0  0  0  0  0  0  0
   38.3904   -8.2847    0.0847 H   0  0  0  0  0  0  0  0  0  0  0  0
   39.4925   -7.1708    1.7702 H   0  0  0  0  0  0  0  0  0  0  0  0
   39.2519   -4.6978    1.9769 H   0  0  0  0  0  0  0  0  0  0  0  0
   40.6679   -4.0376   -0.2272 H   0  0  0  0  0  0  0  0  0  0  0  0
   42.5232   -2.0835   -0.1354 H   0  0  0  0  0  0  0  0  0  0  0  0
   42.4055    3.0525    0.7855 H   0  0  0  0  0  0  0  0  0  0  0  0
   40.4724    4.9316    0.7987 H   0  0  0  0  0  0  0  0  0  0  0  0
   36.6506    5.4447    2.0953 H   0  0  0  0  0  0  0  0  0  0  0  0
   37.3578    7.8096    2.4146 H   0  0  0  0  0  0  0  0  0  0  0  0
   36.1343    7.8262    1.1323 H   0  0  0  0  0  0  0  0  0  0  0  0
   38.0438    9.0809    0.3932 H   0  0  0  0  0  0  0  0  0  0  0  0
   39.2249    8.0006   -1.2604 H   0  0  0  0  0  0  0  0  0  0  0  0
   39.0844    5.5189   -1.4557 H   0  0  0  0  0  0  0  0  0  0  0  0
   35.2830    4.8328   -0.1230 H   0  0  0  0  0  0  0  0  0  0  0  0
   33.4344    2.8690   -0.1524 H   0  0  0  0  0  0  0  0  0  0  0  0
   85.8676    0.2701    0.2242 Fe  0  0  0  0  0  0  0  0  0  0  0  0
   89.2503    0.3693    0.2030 C   0  0  0  0  0  0  0  0  0  0  0  0
   88.5718    1.5226    0.5407 C   0  0  0  0  0  0  0  0  0  0  0  0
   89.2143    2.7444    0.9211 C   0  0  0  0  0  0  0  0  0  0  0  0
   88.2370    3.6726    1.0525 C   0  0  0  0  0  0  0  0  0  0  0  0
   86.9987    3.0204    0.7357 C   0  0  0  0  0  0  0  0  0  0  0  0
   87.2138    1.6932    0.4754 N   0  0  0  0  0  0  0  0  0  0  0  0
   85.7739    3.6704    0.6335 C   0  0  0  0  0  0  0  0  0  0  0  0
   85.7251    5.1400    0.8126 C   0  0  0  0  0  0  0  0  0  0  0  0
   86.4166    5.9710    0.0155 C   0  0  0  0  0  0  0  0  0  0  0  0
   86.3929    7.4666    0.1799 C   0  0  0  0  0  0  0  0  0  0  0  0
   85.3220    7.8891    1.0838 N   0  0  0  0  0  0  0  0  0  0  0  0
   84.7561    7.0229    1.9754 C   0  0  0  0  0  0  0  0  0  0  0  0
   84.8921    5.6871    1.8707 C   0  0  0  0  0  0  0  0  0  0  0  0
   84.5887    2.9962    0.3678 C   0  0  0  0  0  0  0  0  0  0  0  0
   83.3210    3.6402    0.1910 C   0  0  0  0  0  0  0  0  0  0  0  0
   82.3958    2.6576    0.0704 C   0  0  0  0  0  0  0  0  0  0  0  0
   84.4417    1.6321    0.3011 N   0  0  0  0  0  0  0  0  0  0  0  0
   83.1005    1.4174    0.1664 C   0  0  0  0  0  0  0  0  0  0  0  0
   82.4658    0.1727    0.2341 C   0  0  0  0  0  0  0  0  0  0  0  0
   83.1694   -1.0339    0.2945 C   0  0  0  0  0  0  0  0  0  0  0  0
   82.5365   -2.3117    0.3963 C   0  0  0  0  0  0  0  0  0  0  0  0
   83.5162   -3.2404    0.2788 C   0  0  0  0  0  0  0  0  0  0  0  0
   84.7451   -2.5260    0.0973 C   0  0  0  0  0  0  0  0  0  0  0  0
   84.5203   -1.1722    0.1557 N   0  0  0  0  0  0  0  0  0  0  0  0
   85.9675   -3.1323   -0.1633 C   0  0  0  0  0  0  0  0  0  0  0  0
   86.0088   -4.6049   -0.3179 C   0  0  0  0  0  0  0  0  0  0  0  0
   86.7508   -5.3755    0.4946 C   0  0  0  0  0  0  0  0  0  0  0  0
   86.8214   -6.8726    0.3606 C   0  0  0  0  0  0  0  0  0  0  0  0
   85.7920   -7.3788   -0.5483 N   0  0  0  0  0  0  0  0  0  0  0  0
   85.1708   -6.5658   -1.4525 C   0  0  0  0  0  0  0  0  0  0  0  0
   85.2150   -5.2223   -1.3670 C   0  0  0  0  0  0  0  0  0  0  0  0
   87.1514   -2.4125   -0.2811 C   0  0  0  0  0  0  0  0  0  0  0  0
   88.4222   -2.9944   -0.6064 C   0  0  0  0  0  0  0  0  0  0  0  0
   89.3443   -2.0085   -0.4995 C   0  0  0  0  0  0  0  0  0  0  0  0
   88.6358   -0.8228   -0.1217 C   0  0  0  0  0  0  0  0  0  0  0  0
   87.2911   -1.0725   -0.0367 N   0  0  0  0  0  0  0  0  0  0  0  0
   90.3341    0.4010    0.1954 H   0  0  0  0  0  0  0  0  0  0  0  0
   90.2772    2.8581    1.0652 H   0  0  0  0  0  0  0  0  0  0  0  0
   88.3337    4.7071    1.3403 H   0  0  0  0  0  0  0  0  0  0  0  0
   87.0390    5.6001   -0.7905 H   0  0  0  0  0  0  0  0  0  0  0  0
   86.2319    7.9524   -0.7929 H   0  0  0  0  0  0  0  0  0  0  0  0
   87.3673    7.8229    0.5620 H   0  0  0  0  0  0  0  0  0  0  0  0
   85.3500    8.8638    1.3428 H   0  0  0  0  0  0  0  0  0  0  0  0
   84.1324    7.4901    2.7308 H   0  0  0  0  0  0  0  0  0  0  0  0
   84.4009    5.0175    2.5623 H   0  0  0  0  0  0  0  0  0  0  0  0
   83.1689    4.7070    0.1634 H   0  0  0  0  0  0  0  0  0  0  0  0
   81.3303    2.7490   -0.0668 H   0  0  0  0  0  0  0  0  0  0  0  0
   81.4777   -2.4620    0.5345 H   0  0  0  0  0  0  0  0  0  0  0  0
   83.4253   -4.3142    0.3108 H   0  0  0  0  0  0  0  0  0  0  0  0
   87.3480   -4.9505    1.2928 H   0  0  0  0  0  0  0  0  0  0  0  0
   86.6774   -7.3481    1.3414 H   0  0  0  0  0  0  0  0  0  0  0  0
   87.8211   -7.1753   -0.0014 H   0  0  0  0  0  0  0  0  0  0  0  0
   85.8859   -8.3534   -0.7915 H   0  0  0  0  0  0  0  0  0  0  0  0
   84.5838   -7.0852   -2.2032 H   0  0  0  0  0  0  0  0  0  0  0  0
   84.6819   -4.5979   -2.0697 H   0  0  0  0  0  0  0  0  0  0  0  0
   88.5761   -4.0247   -0.8838 H   0  0  0  0  0  0  0  0  0  0  0  0
   90.4102   -2.0608   -0.6570 H   0  0  0  0  0  0  0  0  0  0  0  0
   46.5854    0.5981    0.4356 C   0  0  0  0  0  0  0  0  0  0  0  0
   45.3578    0.5571    0.4010 C   0  0  0  0  0  0  0  0  0  0  0  0
   44.0145    0.5216    0.3676 C   0  0  0  0  0  0  0  0  0  0  0  0
   42.7910    0.4908    0.3414 C   0  0  0  0  0  0  0  0  0  0  0  0
   47.9278    0.6442    0.4795 C   0  0  0  0  0  0  0  0  0  0  0  0
   49.1505    0.6926    0.5251 C   0  0  0  0  0  0  0  0  0  0  0  0
   62.5489    0.4853    0.4123 C   0  0  0  0  0  0  0  0  0  0  0  0
   61.3187    0.4880    0.4079 C   0  0  0  0  0  0  0  0  0  0  0  0
   59.9774    0.5165    0.4253 C   0  0  0  0  0  0  0  0  0  0  0  0
   58.7532    0.5665    0.4598 C   0  0  0  0  0  0  0  0  0  0  0  0
   63.8901    0.5089    0.4391 C   0  0  0  0  0  0  0  0  0  0  0  0
   65.1143    0.5510    0.4832 C   0  0  0  0  0  0  0  0  0  0  0  0
   78.4941    0.1558    0.3202 C   0  0  0  0  0  0  0  0  0  0  0  0
   77.2671    0.2004    0.3657 C   0  0  0  0  0  0  0  0  0  0  0  0
   75.9263    0.2766    0.4251 C   0  0  0  0  0  0  0  0  0  0  0  0
   74.7073    0.3729    0.4871 C   0  0  0  0  0  0  0  0  0  0  0  0
   79.8380    0.1363    0.2808 C   0  0  0  0  0  0  0  0  0  0  0  0
   81.0616    0.1413    0.2525 C   0  0  0  0  0  0  0  0  0  0  0  0
   53.9558    0.8125    0.6446 Fe  0  0  0  0  0  0  0  0  0  0  0  0
   50.5514    0.7431    0.5773 C   0  0  0  0  0  0  0  0  0  0  0  0
   51.2174    1.7150   -0.1811 C   0  0  0  0  0  0  0  0  0  0  0  0
   50.5484    2.7273   -0.9350 C   0  0  0  0  0  0  0  0  0  0  0  0
   51.5087    3.4097   -1.6065 C   0  0  0  0  0  0  0  0  0  0  0  0
   52.7585    2.7889   -1.2830 C   0  0  0  0  0  0  0  0  0  0  0  0
   52.5662    1.7871   -0.3624 N   0  0  0  0  0  0  0  0  0  0  0  0
   53.9644    3.0801   -1.9092 C   0  0  0  0  0  0  0  0  0  0  0  0
   53.9830    4.0811   -2.9994 C   0  0  0  0  0  0  0  0  0  0  0  0
   53.2431    3.9247   -4.1099 C   0  0  0  0  0  0  0  0  0  0  0  0
   53.2845    4.8942   -5.2593 C   0  0  0  0  0  0  0  0  0  0  0  0
   53.9579    6.1389   -4.8854 N   0  0  0  0  0  0  0  0  0  0  0  0
   54.8042    6.2001   -3.8149 C   0  0  0  0  0  0  0  0  0  0  0  0
   54.8382    5.2482   -2.8631 C   0  0  0  0  0  0  0  0  0  0  0  0
   55.1572    2.4442   -1.5809 C   0  0  0  0  0  0  0  0  0  0  0  0
   56.3856    2.6194   -2.2958 C   0  0  0  0  0  0  0  0  0  0  0  0
   57.3296    1.9071   -1.6323 C   0  0  0  0  0  0  0  0  0  0  0  0
   55.3429    1.5987   -0.5164 N   0  0  0  0  0  0  0  0  0  0  0  0
   56.6754    1.3063   -0.5127 C   0  0  0  0  0  0  0  0  0  0  0  0
   57.3560    0.6421    0.5151 C   0  0  0  0  0  0  0  0  0  0  0  0
   56.6983    0.1016    1.6293 C   0  0  0  0  0  0  0  0  0  0  0  0
   57.3789   -0.4491    2.7583 C   0  0  0  0  0  0  0  0  0  0  0  0
   56.4232   -0.9323    3.5899 C   0  0  0  0  0  0  0  0  0  0  0  0
   55.1630   -0.7034    2.9479 C   0  0  0  0  0  0  0  0  0  0  0  0
   55.3490   -0.0180    1.7706 N   0  0  0  0  0  0  0  0  0  0  0  0
   53.9502   -1.2107    3.3956 C   0  0  0  0  0  0  0  0  0  0  0  0
   53.9274   -2.0529    4.6128 C   0  0  0  0  0  0  0  0  0  0  0  0
   54.6296   -3.1948    4.6976 C   0  0  0  0  0  0  0  0  0  0  0  0
   54.6243   -4.0652    5.9251 C   0  0  0  0  0  0  0  0  0  0  0  0
   53.5592   -3.6789    6.8521 N   0  0  0  0  0  0  0  0  0  0  0  0
   52.9806   -2.4426    6.8004 C   0  0  0  0  0  0  0  0  0  0  0  0
   53.0984   -1.6332    5.7308 C   0  0  0  0  0  0  0  0  0  0  0  0
   52.7479   -0.9867    2.7308 C   0  0  0  0  0  0  0  0  0  0  0  0
   51.5086   -1.6142    3.0793 C   0  0  0  0  0  0  0  0  0  0  0  0
   50.5632   -1.0974    2.2566 C   0  0  0  0  0  0  0  0  0  0  0  0
   51.2261   -0.1480    1.4184 C   0  0  0  0  0  0  0  0  0  0  0  0
   52.5658   -0.1232    1.6816 N   0  0  0  0  0  0  0  0  0  0  0  0
   49.4823    2.8891   -0.9349 H   0  0  0  0  0  0  0  0  0  0  0  0
   51.3896    4.2551   -2.2645 H   0  0  0  0  0  0  0  0  0  0  0  0
   52.6281    3.0458   -4.2643 H   0  0  0  0  0  0  0  0  0  0  0  0
   53.7956    4.4363   -6.1264 H   0  0  0  0  0  0  0  0  0  0  0  0
   52.2629    5.1404   -5.5819 H   0  0  0  0  0  0  0  0  0  0  0  0
   54.1446    6.7634   -5.6556 H   0  0  0  0  0  0  0  0  0  0  0  0
   55.3922    7.1101   -3.7524 H   0  0  0  0  0  0  0  0  0  0  0  0
   55.4668    5.3501   -1.9901 H   0  0  0  0  0  0  0  0  0  0  0  0
   56.5004    3.2065   -3.1927 H   0  0  0  0  0  0  0  0  0  0  0  0
   58.3776    1.7993   -1.8615 H   0  0  0  0  0  0  0  0  0  0  0  0
   58.4491   -0.4504    2.8899 H   0  0  0  0  0  0  0  0  0  0  0  0
   56.5525   -1.4026    4.5510 H   0  0  0  0  0  0  0  0  0  0  0  0
   55.2436   -3.5483    3.8776 H   0  0  0  0  0  0  0  0  0  0  0  0
   55.6035   -4.0079    6.4350 H   0  0  0  0  0  0  0  0  0  0  0  0
   54.4692   -5.1164    5.6434 H   0  0  0  0  0  0  0  0  0  0  0  0
   53.6056   -4.1272    7.7548 H   0  0  0  0  0  0  0  0  0  0  0  0
   52.3626   -2.1933    7.6570 H   0  0  0  0  0  0  0  0  0  0  0  0
   52.5951   -0.6777    5.6914 H   0  0  0  0  0  0  0  0  0  0  0  0
   51.3885   -2.3578    3.8504 H   0  0  0  0  0  0  0  0  0  0  0  0
   49.5082   -1.3167    2.2204 H   0  0  0  0  0  0  0  0  0  0  0  0
   69.9152    0.7628    0.7005 Fe  0  0  0  0  0  0  0  0  0  0  0  0
   66.5112    0.6245    0.5555 C   0  0  0  0  0  0  0  0  0  0  0  0
   67.1817    1.5017   -0.3087 C   0  0  0  0  0  0  0  0  0  0  0  0
   66.5069    2.4010   -1.1906 C   0  0  0  0  0  0  0  0  0  0  0  0
   67.4684    3.1008   -1.8411 C   0  0  0  0  0  0  0  0  0  0  0  0
   68.7280    2.5944   -1.3835 C   0  0  0  0  0  0  0  0  0  0  0  0
   68.5323    1.6402   -0.4128 N   0  0  0  0  0  0  0  0  0  0  0  0
   69.9554    2.9533   -1.9227 C   0  0  0  0  0  0  0  0  0  0  0  0
   69.9993    3.9470   -3.0201 C   0  0  0  0  0  0  0  0  0  0  0  0
   69.3876    3.7318   -4.1962 C   0  0  0  0  0  0  0  0  0  0  0  0
   69.4703    4.7013   -5.3437 C   0  0  0  0  0  0  0  0  0  0  0  0
   69.9865    6.0003   -4.9090 N   0  0  0  0  0  0  0  0  0  0  0  0
   70.7246    6.1257   -3.7655 C   0  0  0  0  0  0  0  0  0  0  0  0
   70.7455    5.1767   -2.8108 C   0  0  0  0  0  0  0  0  0  0  0  0
   71.1573    2.3815   -1.5163 C   0  0  0  0  0  0  0  0  0  0  0  0
   72.4057    2.5959   -2.1844 C   0  0  0  0  0  0  0  0  0  0  0  0
   73.3339    1.8620   -1.5235 C   0  0  0  0  0  0  0  0  0  0  0  0
   71.3204    1.5168   -0.4651 N   0  0  0  0  0  0  0  0  0  0  0  0
   72.6531    1.2208   -0.4425 C   0  0  0  0  0  0  0  0  0  0  0  0
   73.3119    0.5047    0.5620 C   0  0  0  0  0  0  0  0  0  0  0  0
   72.6486   -0.0101    1.6830 C   0  0  0  0  0  0  0  0  0  0  0  0
   73.3292   -0.5607    2.8120 C   0  0  0  0  0  0  0  0  0  0  0  0
   72.3733   -0.9243    3.7018 C   0  0  0  0  0  0  0  0  0  0  0  0
   71.1099   -0.6344    3.0918 C   0  0  0  0  0  0  0  0  0  0  0  0
   71.2988   -0.0343    1.8701 N   0  0  0  0  0  0  0  0  0  0  0  0
   69.8817   -1.0056    3.6250 C   0  0  0  0  0  0  0  0  0  0  0  0
   69.8446   -1.7172    4.9236 C   0  0  0  0  0  0  0  0  0  0  0  0
   70.4453   -2.9049    5.1015 C   0  0  0  0  0  0  0  0  0  0  0  0
   70.4216   -3.6399    6.4147 C   0  0  0  0  0  0  0  0  0  0  0  0
   69.4275   -3.0728    7.3275 N   0  0  0  0  0  0  0  0  0  0  0  0
   68.9592   -1.7990    7.1693 C   0  0  0  0  0  0  0  0  0  0  0  0
   69.1054   -1.1129    6.0200 C   0  0  0  0  0  0  0  0  0  0  0  0
   68.6751   -0.7829    2.9705 C   0  0  0  0  0  0  0  0  0  0  0  0
   67.4208   -1.3169    3.4096 C   0  0  0  0  0  0  0  0  0  0  0  0
   66.4876   -0.9093    2.5154 C   0  0  0  0  0  0  0  0  0  0  0  0
   67.1715   -0.1103    1.5473 C   0  0  0  0  0  0  0  0  0  0  0  0
   68.5088   -0.0654    1.8129 N   0  0  0  0  0  0  0  0  0  0  0  0
   65.4357    2.4885   -1.2768 H   0  0  0  0  0  0  0  0  0  0  0  0
   67.3440    3.8865   -2.5683 H   0  0  0  0  0  0  0  0  0  0  0  0
   68.8613    2.8074   -4.4035 H   0  0  0  0  0  0  0  0  0  0  0  0
   70.1119    4.2902   -6.1451 H   0  0  0  0  0  0  0  0  0  0  0  0
   68.4730    4.8576   -5.7783 H   0  0  0  0  0  0  0  0  0  0  0  0
   70.1961    6.6397   -5.6611 H   0  0  0  0  0  0  0  0  0  0  0  0
   71.2288    7.0801   -3.6524 H   0  0  0  0  0  0  0  0  0  0  0  0
   71.2820    5.3235   -1.8843 H   0  0  0  0  0  0  0  0  0  0  0  0
   72.5414    3.2162   -3.0557 H   0  0  0  0  0  0  0  0  0  0  0  0
   74.3881    1.7662   -1.7283 H   0  0  0  0  0  0  0  0  0  0  0  0
   74.4007   -0.6344    2.9071 H   0  0  0  0  0  0  0  0  0  0  0  0
   72.5051   -1.3523    4.6821 H   0  0  0  0  0  0  0  0  0  0  0  0
   70.9866   -3.3958    4.3012 H   0  0  0  0  0  0  0  0  0  0  0  0
   71.4219   -3.6102    6.8846 H   0  0  0  0  0  0  0  0  0  0  0  0
   70.1732   -4.6981    6.2523 H   0  0  0  0  0  0  0  0  0  0  0  0
   69.4705   -3.4322    8.2693 H   0  0  0  0  0  0  0  0  0  0  0  0
   68.3997   -1.4115    8.0145 H   0  0  0  0  0  0  0  0  0  0  0  0
   68.6864   -0.1242    5.8984 H   0  0  0  0  0  0  0  0  0  0  0  0
   67.2843   -1.9346    4.2824 H   0  0  0  0  0  0  0  0  0  0  0  0
   65.4283   -1.1101    2.5078 H   0  0  0  0  0  0  0  0  0  0  0  0
  2  3  4  0  0  0  0
  3  4  4  0  0  0  0
  4  5  2  0  0  0  0
  5  6  4  0  0  0  0
  1  7  1  0  0  0  0
  3  7  4  0  0  0  0
  6  7  4  0  0  0  0
  6  8  4  0  0  0  0
  8  9  1  0  0  0  0
  9 10  2  0  0  0  0
 10 11  1  0  0  0  0
 11 12  1  0  0  0  0
 12 13  1  0  0  0  0
  9 14  1  0  0  0  0
 13 14  2  0  0  0  0
  8 15  4  0  0  0  0
 15 16  4  0  0  0  0
 16 17  2  0  0  0  0
  1 18  1  0  0  0  0
 15 18  4  0  0  0  0
 17 19  4  0  0  0  0
 18 19  4  0  0  0  0
 19 20  4  0  0  0  0
 20 21  4  0  0  0  0
 21 22  4  0  0  0  0
 22 23  2  0  0  0  0
 23 24  4  0  0  0  0
  1 25  1  0  0  0  0
 21 25  4  0  0  0  0
 24 25  4  0  0  0  0
 24 26  4  0  0  0  0
 26 27  1  0  0  0  0
 27 28  2  0  0  0  0
 28 29  1  0  0  0  0
 29 30  1  0  0  0  0
 30 31  1  0  0  0  0
 27 32  1  0  0  0  0
 31 32  2  0  0  0  0
 26 33  4  0  0  0  0
 33 34  4  0  0  0  0
 34 35  2  0  0  0  0
  2 36  4  0  0  0  0
 35 36  4  0  0  0  0
  1 37  1  0  0  0  0
 33 37  4  0  0  0  0
 36 37  4  0  0  0  0
  2 38  1  0  0  0  0
  4 39  1  0  0  0  0
  5 40  1  0  0  0  0
 10 41  1  0  0  0  0
 11 42  1  0  0  0  0
 11 43  1  0  0  0  0
 12 44  1  0  0  0  0
 13 45  1  0  0  0  0
 14 46  1  0  0  0  0
 16 47  1  0  0  0  0
 17 48  1  0  0  0  0
 22 49  1  0  0  0  0
 23 50  1  0  0  0  0
 28 51  1  0  0  0  0
 29 52  1  0  0  0  0
 29 53  1  0  0  0  0
 30 54  1  0  0  0  0
 31 55  1  0  0  0  0
 32 56  1  0  0  0  0
 34 57  1  0  0  0  0
 35 58  1  0  0  0  0
 60 61  4  0  0  0  0
 61 62  4  0  0  0  0
 62 63  2  0  0  0  0
 63 64  4  0  0  0  0
 59 65  1  0  0  0  0
 61 65  4  0  0  0  0
 64 65  4  0  0  0  0
 64 66  4  0  0  0  0
 66 67  1  0  0  0  0
 67 68  2  0  0  0  0
 68 69  1  0  0  0  0
 69 70  1  0  0  0  0
 70 71  1  0  0  0  0
 67 72  1  0  0  0  0
 71 72  2  0  0  0  0
 66 73  4  0  0  0  0
 73 74  4  0  0  0  0
 74 75  2  0  0  0  0
 59 76  1  0  0  0  0
 73 76  4  0  0  0  0
 75 77  4  0  0  0  0
 76 77  4  0  0  0  0
 77 78  4  0  0  0  0
 78 79  4  0  0  0  0
 79 80  4  0  0  0  0
 80 81  2  0  0  0  0
 81 82  4  0  0  0  0
 59 83  1  0  0  0  0
 79 83  4  0  0  0  0
 82 83  4  0  0  0  0
 82 84  4  0  0  0  0
 84 85  1  0  0  0  0
 85 86  2  0  0  0  0
 86 87  1  0  0  0  0
 87 88  1  0  0  0  0
 88 89  1  0  0  0  0
 85 90  1  0  0  0  0
 89 90  2  0  0  0  0
 84 91  4  0  0  0  0
 91 92  4  0  0  0  0
 92 93  2  0  0  0  0
 60 94  4  0  0  0  0
 93 94  4  0  0  0  0
 59 95  1  0  0  0  0
 91 95  4  0  0  0  0
 94 95  4  0  0  0  0
 60 96  1  0  0  0  0
 62 97  1  0  0  0  0
 63 98  1  0  0  0  0
 68 99  1  0  0  0  0
 69100  1  0  0  0  0
 69101  1  0  0  0  0
 70102  1  0  0  0  0
 71103  1  0  0  0  0
 72104  1  0  0  0  0
 74105  1  0  0  0  0
 75106  1  0  0  0  0
 80107  1  0  0  0  0
 81108  1  0  0  0  0
 86109  1  0  0  0  0
 87110  1  0  0  0  0
 87111  1  0  0  0  0
 88112  1  0  0  0  0
 89113  1  0  0  0  0
 90114  1  0  0  0  0
 92115  1  0  0  0  0
 93116  1  0  0  0  0
117118  3  0  0  0  0
118119  4  0  0  0  0
 20120  4  0  0  0  0
119120  3  0  0  0  0
117121  4  0  0  0  0
121122  3  0  0  0  0
123124  3  0  0  0  0
124125  4  0  0  0  0
125126  3  0  0  0  0
123127  4  0  0  0  0
127128  3  0  0  0  0
129130  3  0  0  0  0
130131  4  0  0  0  0
131132  3  0  0  0  0
129133  4  0  0  0  0
 78134  4  0  0  0  0
133134  3  0  0  0  0
122136  4  0  0  0  0
136137  4  0  0  0  0
137138  4  0  0  0  0
138139  2  0  0  0  0
139140  4  0  0  0  0
135141  1  0  0  0  0
137141  4  0  0  0  0
140141  4  0  0  0  0
140142  4  0  0  0  0
142143  1  0  0  0  0
143144  2  0  0  0  0
144145  1  0  0  0  0
145146  1  0  0  0  0
146147  1  0  0  0  0
143148  1  0  0  0  0
147148  2  0  0  0  0
142149  4  0  0  0  0
149150  4  0  0  0  0
150151  2  0  0  0  0
135152  1  0  0  0  0
149152  4  0  0  0  0
151153  4  0  0  0  0
152153  4  0  0  0  0
126154  4  0  0  0  0
153154  4  0  0  0  0
154155  4  0  0  0  0
155156  4  0  0  0  0
156157  2  0  0  0  0
157158  4  0  0  0  0
135159  1  0  0  0  0
155159  4  0  0  0  0
158159  4  0  0  0  0
158160  4  0  0  0  0
160161  1  0  0  0  0
161162  2  0  0  0  0
162163  1  0  0  0  0
163164  1  0  0  0  0
164165  1  0  0  0  0
161166  1  0  0  0  0
165166  2  0  0  0  0
160167  4  0  0  0  0
167168  4  0  0  0  0
168169  2  0  0  0  0
136170  4  0  0  0  0
169170  4  0  0  0  0
135171  1  0  0  0  0
167171  4  0  0  0  0
170171  4  0  0  0  0
138172  1  0  0  0  0
139173  1  0  0  0  0
144174  1  0  0  0  0
145175  1  0  0  0  0
145176  1  0  0  0  0
146177  1  0  0  0  0
147178  1  0  0  0  0
148179  1  0  0  0  0
150180  1  0  0  0  0
151181  1  0  0  0  0
156182  1  0  0  0  0
157183  1  0  0  0  0
162184  1  0  0  0  0
163185  1  0  0  0  0
163186  1  0  0  0  0
164187  1  0  0  0  0
165188  1  0  0  0  0
166189  1  0  0  0  0
168190  1  0  0  0  0
169191  1  0  0  0  0
128193  4  0  0  0  0
193194  4  0  0  0  0
194195  4  0  0  0  0
195196  2  0  0  0  0
196197  4  0  0  0  0
192198  1  0  0  0  0
194198  4  0  0  0  0
197198  4  0  0  0  0
197199  4  0  0  0  0
199200  1  0  0  0  0
200201  2  0  0  0  0
201202  1  0  0  0  0
202203  1  0  0  0  0
203204  1  0  0  0  0
200205  1  0  0  0  0
204205  2  0  0  0  0
199206  4  0  0  0  0
206207  4  0  0  0  0
207208  2  0  0  0  0
192209  1  0  0  0  0
206209  4  0  0  0  0
208210  4  0  0  0  0
209210  4  0  0  0  0
132211  4  0  0  0  0
210211  4  0  0  0  0
211212  4  0  0  0  0
212213  4  0  0  0  0
213214  2  0  0  0  0
214215  4  0  0  0  0
192216  1  0  0  0  0
212216  4  0  0  0  0
215216  4  0  0  0  0
215217  4  0  0  0  0
217218  1  0  0  0  0
218219  2  0  0  0  0
219220  1  0  0  0  0
220221  1  0  0  0  0
221222  1  0  0  0  0
218223  1  0  0  0  0
222223  2  0  0  0  0
217224  4  0  0  0  0
224225  4  0  0  0  0
225226  2  0  0  0  0
193227  4  0  0  0  0
226227  4  0  0  0  0
192228  1  0  0  0  0
224228  4  0  0  0  0
227228  4  0  0  0  0
195229  1  0  0  0  0
196230  1  0  0  0  0
201231  1  0  0  0  0
202232  1  0  0  0  0
202233  1  0  0  0  0
203234  1  0  0  0  0
204235  1  0  0  0  0
205236  1  0  0  0  0
207237  1  0  0  0  0
208238  1  0  0  0  0
213239  1  0  0  0  0
214240  1  0  0  0  0
219241  1  0  0  0  0
220242  1  0  0  0  0
220243  1  0  0  0  0
221244  1  0  0  0  0
222245  1  0  0  0  0
223246  1  0  0  0  0
225247  1  0  0  0  0
226248  1  0  0  0  0
M  END
