494

C 101.353687 0.016508 0.059520
C 102.078555 1.209835 -0.634858
C 101.463750 2.235190 -1.316583
C 102.484764 3.127140 -1.734966
C 103.689164 2.618544 -1.288861
N 103.432962 1.425782 -0.659851
C 105.115773 3.292957 -1.443221
C 105.161544 4.690761 -1.933720
C 105.427208 4.950216 -3.285003
C 105.462989 6.262771 -3.758484
C 105.229189 7.314050 -2.874455
O 105.256840 8.611382 -3.301932
C 104.961605 7.073886 -1.530872
C 104.927681 5.759790 -1.059637
C 106.245581 2.612131 -1.109868
C 107.554592 3.229345 -1.174058
C 108.456748 2.342591 -0.770787
N 106.438883 1.331320 -0.662838
C 107.773229 1.107086 -0.441759
C 108.441213 0.006043 -0.005064
C 107.661123 -1.339837 0.311063
C 108.198162 -2.612494 0.306248
C 107.173370 -3.511056 0.693379
C 106.035708 -2.764067 0.912584
N 106.329116 -1.450545 0.629635
C 104.626928 -3.320395 1.384784
C 104.593238 -4.633813 2.066838
C 104.971950 -4.744939 3.410271
C 104.952251 -5.987986 4.046635
C 104.555365 -7.116081 3.336590
O 104.546134 -8.316018 3.989729
C 104.178190 -7.025167 1.998516
C 104.199964 -5.781561 1.365017
C 103.503261 -2.591289 1.157696
C 102.183036 -3.032216 1.572764
C 101.298220 -2.113968 1.196119
C 102.018660 -1.051157 0.538949
N 103.338577 -1.378225 0.548946
H 100.277046 0.071222 0.167586
H 100.402053 2.338396 -1.479550
H 102.352676 4.049824 -2.279692
H 104.136985 0.803992 -0.269387
H 105.609763 4.113101 -3.955830
H 105.673893 6.434281 -4.807475
H 105.474318 8.597389 -4.247356
H 104.781684 7.897878 -0.849172
H 104.722244 5.552904 -0.011780
H 107.769512 4.238209 -1.478181
H 109.512905 2.531234 -0.710204
H 109.218020 -2.869329 0.063625
H 107.257081 -4.581635 0.804236
H 105.648486 -0.695396 0.607489
H 105.279252 -3.852496 3.950737
H 105.244875 -6.067178 5.087874
H 104.236878 -8.984253 3.358067
H 103.866209 -7.894796 1.432259
H 103.907797 -5.685635 0.321120
H 101.954969 -3.941309 2.099347
H 100.236289 -2.146348 1.359021
C 207.434811 0.054696 0.038680
C 206.709943 -1.174923 0.666555
C 207.324749 -2.303019 1.160013
C 206.303734 -3.137468 1.683762
C 205.099334 -2.487121 1.497408
N 205.355536 -1.312781 0.834640
C 203.672725 -2.981831 1.981063
C 203.626954 -4.150624 2.891210
C 203.361291 -5.427415 2.378288
C 203.325509 -6.535771 3.225950
C 203.559310 -6.361116 4.588371
O 203.531658 -7.422547 5.448121
C 203.826893 -5.101238 5.113350
C 203.860818 -3.993936 4.263177
C 202.542918 -2.333120 1.588860
C 201.233906 -2.721051 2.073198
C 200.331751 -1.902122 1.545642
N 202.349616 -1.264184 0.753583
C 201.015269 -0.956936 0.684621
C 200.347286 0.006043 -0.005064
C 201.127375 1.000099 -0.965889
C 200.590336 1.684628 -2.038781
C 201.615128 2.496373 -2.585001
C 202.752790 2.276558 -1.838191
N 202.459382 1.327913 -0.886628
C 204.161570 2.974677 -2.050569
C 204.195260 4.258907 -2.786107
C 203.816549 5.448842 -2.152690
C 203.836247 6.656573 -2.853768
C 204.233133 6.669798 -4.186654
O 204.242364 7.868311 -4.842401
C 204.610308 5.495305 -4.834169
C 204.588535 4.289681 -4.131072
C 205.285237 2.389212 -1.560268
C 206.605462 2.976844 -1.706507
C 207.490278 2.163267 -1.138059
C 206.769838 1.035556 -0.599815
N 205.449921 1.220925 -0.869465
H 208.511453 0.115975 0.143163
H 208.386445 -2.495912 1.158634
H 206.435822 -4.094799 2.165000
H 204.651513 -0.647983 0.522986
H 203.178736 -5.538645 1.311331
H 203.114605 -7.510755 2.802625
H 203.314180 -8.210065 4.924826
H 204.006814 -4.973763 6.175153
H 204.066254 -3.000766 4.656137
H 201.018986 -3.522666 2.757092
H 199.275593 -1.953239 1.737067
H 199.570478 1.619548 -2.386049
H 201.531417 3.168845 -3.425364
H 203.140012 0.900711 -0.263540
H 203.509246 5.420505 -1.109735
H 203.543624 7.575089 -2.356999
H 204.551621 7.698645 -5.746142
H 204.922289 5.489608 -5.871892
H 204.880702 3.359876 -4.615206
H 206.833529 3.911564 -2.186131
H 208.552209 2.317785 -1.077151
C 112.121909 0.018775 -0.002539
C 110.869638 -0.000406 -0.006888
C 113.435577 0.018009 -0.000607
C 114.938710 -0.000406 -0.006888
C 125.966279 0.018775 -0.002539
C 124.714008 -0.000406 -0.006888
C 127.279947 0.018009 -0.000607
C 128.783080 -0.000406 -0.006888
C 139.810648 0.018775 -0.002539
C 138.558378 -0.000406 -0.006888
C 141.124317 0.018009 -0.000607
C 142.627450 -0.000406 -0.006888
C 153.655018 0.018775 -0.002539
C 152.402748 -0.000406 -0.006888
C 154.968687 0.018009 -0.000607
C 156.471820 -0.000406 -0.006888
C 167.499388 0.018775 -0.002539
C 166.247118 -0.000406 -0.006888
C 168.813057 0.018009 -0.000607
C 170.316190 -0.000406 -0.006888
C 181.343758 0.018775 -0.002539
C 180.091488 -0.000406 -0.006888
C 182.657426 0.018009 -0.000607
C 184.160560 -0.000406 -0.006888
C 195.188128 0.018775 -0.002539
C 193.935858 -0.000406 -0.006888
C 196.501796 0.018009 -0.000607
C 198.004930 -0.000406 -0.006888
C 116.215946 -0.002017 0.002271
C 117.020087 -1.033588 -0.903045
C 116.509316 -1.764795 -1.960324
C 117.545156 -2.582089 -2.457117
C 118.665099 -2.328150 -1.685341
N 118.354069 -1.331227 -0.794117
C 120.068417 -3.062538 -1.819882
C 120.070954 -4.406620 -2.438051
C 120.543571 -4.579437 -3.747183
C 120.548503 -5.843460 -4.337129
C 120.068883 -6.931860 -3.612232
O 120.052467 -8.184683 -4.158188
C 119.577840 -6.778839 -2.321425
C 119.578810 -5.513438 -1.734514
C 121.198210 -2.462014 -1.369299
C 122.491782 -3.109777 -1.436627
C 123.404218 -2.272890 -0.945235
N 121.400193 -1.242115 -0.796810
C 122.730773 -1.058224 -0.536550
C 123.386692 -0.002017 0.002271
C 122.586682 1.303281 0.433067
C 123.131652 2.555061 0.635760
C 122.110437 3.387437 1.134742
C 120.949082 2.639050 1.171323
N 121.246563 1.376891 0.718360
C 119.533286 3.137658 1.706738
C 119.503562 4.354733 2.551592
C 119.651889 5.614949 1.960332
C 119.612117 6.773554 2.741328
C 119.386529 6.668082 4.112312
O 119.292034 7.815745 4.844731
C 119.243641 5.421098 4.721273
C 119.314857 4.264639 3.938352
C 118.396043 2.449293 1.394559
C 117.096573 2.866846 1.878652
C 116.190369 1.995553 1.432748
C 116.868222 1.014038 0.618012
N 118.197459 1.345400 0.630184
H 115.495014 -1.722494 -2.322792
H 117.486471 -3.295045 -3.272237
H 119.018510 -0.869799 -0.176733
H 120.913163 -3.713128 -4.296429
H 120.941413 -5.947685 -5.335851
H 120.353641 -8.099911 -5.076786
H 119.190641 -7.631840 -1.781972
H 119.195300 -5.370005 -0.726403
H 122.700243 -4.099458 -1.810554
H 124.453456 -2.488250 -0.865809
H 124.165399 2.829121 0.491679
H 122.216355 4.416058 1.456661
H 120.573986 0.627180 0.606279
H 119.800037 5.679374 0.884348
H 119.737473 7.748166 2.287119
H 118.679780 7.619081 5.581342
H 119.077977 5.328466 5.786507
H 119.199845 3.282530 4.386843
H 116.880440 3.725365 2.489731
H 115.134381 2.053055 1.631194
C 130.060315 -0.002017 0.002271
C 130.864457 -1.033588 -0.903045
C 130.353686 -1.764795 -1.960324
C 131.389526 -2.582089 -2.457117
C 132.509469 -2.328150 -1.685341
N 132.198439 -1.331227 -0.794117
C 133.912787 -3.062538 -1.819882
C 133.915324 -4.406620 -2.438051
C 134.387941 -4.579437 -3.747183
C 134.392873 -5.843460 -4.337129
C 133.913253 -6.931860 -3.612232
O 133.896837 -8.184683 -4.158188
C 133.422210 -6.778839 -2.321425
C 133.423180 -5.513438 -1.734514
C 135.042580 -2.462014 -1.369299
C 136.336152 -3.109777 -1.436627
C 137.248588 -2.272890 -0.945235
N 135.244563 -1.242115 -0.796810
C 136.575143 -1.058224 -0.536550
C 137.231062 -0.002017 0.002271
C 136.431052 1.303281 0.433067
C 136.976022 2.555061 0.635760
C 135.954806 3.387437 1.134742
C 134.793452 2.639050 1.171323
N 135.090933 1.376891 0.718360
C 133.377656 3.137658 1.706738
C 133.347932 4.354733 2.551592
C 133.496259 5.614949 1.960332
C 133.456487 6.773554 2.741328
C 133.230899 6.668082 4.112312
O 133.136404 7.815745 4.844731
C 133.088011 5.421098 4.721273
C 133.159227 4.264639 3.938352
C 132.240413 2.449293 1.394559
C 130.940943 2.866846 1.878652
C 130.034739 1.995553 1.432748
C 130.712592 1.014038 0.618012
N 132.041829 1.345400 0.630184
H 129.339384 -1.722494 -2.322792
H 131.330841 -3.295045 -3.272237
H 132.862880 -0.869799 -0.176733
H 134.757533 -3.713128 -4.296429
H 134.785783 -5.947685 -5.335851
H 134.198011 -8.099911 -5.076786
H 133.035011 -7.631840 -1.781972
H 133.039670 -5.370005 -0.726403
H 136.544613 -4.099458 -1.810554
H 138.297826 -2.488250 -0.865809
H 138.009769 2.829121 0.491679
H 136.060725 4.416058 1.456661
H 134.418356 0.627180 0.606279
H 133.644407 5.679374 0.884348
H 133.581843 7.748166 2.287119
H 132.524150 7.619081 5.581342
H 132.922347 5.328466 5.786507
H 133.044215 3.282530 4.386843
H 130.724810 3.725365 2.489731
H 128.978751 2.053055 1.631194
C 143.904685 -0.002017 0.002271
C 144.708827 -1.033588 -0.903045
C 144.198056 -1.764795 -1.960324
C 145.233896 -2.582089 -2.457117
C 146.353839 -2.328150 -1.685341
N 146.042809 -1.331227 -0.794117
C 147.757157 -3.062538 -1.819882
C 147.759694 -4.406620 -2.438051
C 148.232311 -4.579437 -3.747183
C 148.237243 -5.843460 -4.337129
C 147.757623 -6.931860 -3.612232
O 147.741206 -8.184683 -4.158188
C 147.266580 -6.778839 -2.321425
C 147.267550 -5.513438 -1.734514
C 148.886950 -2.462014 -1.369299
C 150.180522 -3.109777 -1.436627
C 151.092958 -2.272890 -0.945235
N 149.088933 -1.242115 -0.796810
C 150.419513 -1.058224 -0.536550
C 151.075432 -0.002017 0.002271
C 150.275422 1.303281 0.433067
C 150.820392 2.555061 0.635760
C 149.799176 3.387437 1.134742
C 148.637822 2.639050 1.171323
N 148.935303 1.376891 0.718360
C 147.222026 3.137658 1.706738
C 147.192302 4.354733 2.551592
C 147.340629 5.614949 1.960332
C 147.300857 6.773554 2.741328
C 147.075269 6.668082 4.112312
O 146.980774 7.815745 4.844731
C 146.932381 5.421098 4.721273
C 147.003596 4.264639 3.938352
C 146.084783 2.449293 1.394559
C 144.785313 2.866846 1.878652
C 143.879109 1.995553 1.432748
C 144.556962 1.014038 0.618012
N 145.886199 1.345400 0.630184
H 143.183753 -1.722494 -2.322792
H 145.175211 -3.295045 -3.272237
H 146.707249 -0.869799 -0.176733
H 148.601903 -3.713128 -4.296429
H 148.630153 -5.947685 -5.335851
H 148.042381 -8.099911 -5.076786
H 146.879381 -7.631840 -1.781972
H 146.884040 -5.370005 -0.726403
H 150.388983 -4.099458 -1.810554
H 152.142196 -2.488250 -0.865809
H 151.854139 2.829121 0.491679
H 149.905095 4.416058 1.456661
H 148.262726 0.627180 0.606279
H 147.488777 5.679374 0.884348
H 147.426213 7.748166 2.287119
H 146.368520 7.619081 5.581342
H 146.766717 5.328466 5.786507
H 146.888585 3.282530 4.386843
H 144.569180 3.725365 2.489731
H 142.823121 2.053055 1.631194
C 157.749055 -0.002017 0.002271
C 158.553197 -1.033588 -0.903045
C 158.042426 -1.764795 -1.960324
C 159.078266 -2.582089 -2.457117
C 160.198209 -2.328150 -1.685341
N 159.887179 -1.331227 -0.794117
C 161.601527 -3.062538 -1.819882
C 161.604064 -4.406620 -2.438051
C 162.076681 -4.579437 -3.747183
C 162.081613 -5.843460 -4.337129
C 161.601993 -6.931860 -3.612232
O 161.585576 -8.184683 -4.158188
C 161.110950 -6.778839 -2.321425
C 161.111919 -5.513438 -1.734514
C 162.731320 -2.462014 -1.369299
C 164.024892 -3.109777 -1.436627
C 164.937328 -2.272890 -0.945235
N 162.933303 -1.242115 -0.796810
C 164.263883 -1.058224 -0.536550
C 164.919802 -0.002017 0.002271
C 164.119792 1.303281 0.433067
C 164.664762 2.555061 0.635760
C 163.643546 3.387437 1.134742
C 162.482192 2.639050 1.171323
N 162.779673 1.376891 0.718360
C 161.066396 3.137658 1.706738
C 161.036672 4.354733 2.551592
C 161.184999 5.614949 1.960332
C 161.145226 6.773554 2.741328
C 160.919639 6.668082 4.112312
O 160.825144 7.815745 4.844731
C 160.776751 5.421098 4.721273
C 160.847966 4.264639 3.938352
C 159.929153 2.449293 1.394559
C 158.629683 2.866846 1.878652
C 157.723479 1.995553 1.432748
C 158.401332 1.014038 0.618012
N 159.730569 1.345400 0.630184
H 157.028123 -1.722494 -2.322792
H 159.019581 -3.295045 -3.272237
H 160.551619 -0.869799 -0.176733
H 162.446273 -3.713128 -4.296429
H 162.474523 -5.947685 -5.335851
H 161.886751 -8.099911 -5.076786
H 160.723751 -7.631840 -1.781972
H 160.728410 -5.370005 -0.726403
H 164.233353 -4.099458 -1.810554
H 165.986566 -2.488250 -0.865809
H 165.698509 2.829121 0.491679
H 163.749465 4.416058 1.456661
H 162.107096 0.627180 0.606279
H 161.333147 5.679374 0.884348
H 161.270583 7.748166 2.287119
H 160.212889 7.619081 5.581342
H 160.611087 5.328466 5.786507
H 160.732955 3.282530 4.386843
H 158.413550 3.725365 2.489731
H 156.667491 2.053055 1.631194
C 171.593425 -0.002017 0.002271
C 172.397567 -1.033588 -0.903045
C 171.886796 -1.764795 -1.960324
C 172.922636 -2.582089 -2.457117
C 174.042579 -2.328150 -1.685341
N 173.731549 -1.331227 -0.794117
C 175.445897 -3.062538 -1.819882
C 175.448434 -4.406620 -2.438051
C 175.921051 -4.579437 -3.747183
C 175.925983 -5.843460 -4.337129
C 175.446363 -6.931860 -3.612232
O 175.429946 -8.184683 -4.158188
C 174.955319 -6.778839 -2.321425
C 174.956289 -5.513438 -1.734514
C 176.575690 -2.462014 -1.369299
C 177.869262 -3.109777 -1.436627
C 178.781698 -2.272890 -0.945235
N 176.777673 -1.242115 -0.796810
C 178.108253 -1.058224 -0.536550
C 178.764172 -0.002017 0.002271
C 177.964162 1.303281 0.433067
C 178.509132 2.555061 0.635760
C 177.487916 3.387437 1.134742
C 176.326562 2.639050 1.171323
N 176.624043 1.376891 0.718360
C 174.910766 3.137658 1.706738
C 174.881041 4.354733 2.551592
C 175.029369 5.614949 1.960332
C 174.989596 6.773554 2.741328
C 174.764009 6.668082 4.112312
O 174.669514 7.815745 4.844731
C 174.621121 5.421098 4.721273
C 174.692336 4.264639 3.938352
C 173.773523 2.449293 1.394559
C 172.474053 2.866846 1.878652
C 171.567849 1.995553 1.432748
C 172.245702 1.014038 0.618012
N 173.574938 1.345400 0.630184
H 170.872493 -1.722494 -2.322792
H 172.863951 -3.295045 -3.272237
H 174.395989 -0.869799 -0.176733
H 176.290643 -3.713128 -4.296429
H 176.318893 -5.947685 -5.335851
H 175.731121 -8.099911 -5.076786
H 174.568121 -7.631840 -1.781972
H 174.572780 -5.370005 -0.726403
H 178.077723 -4.099458 -1.810554
H 179.830936 -2.488250 -0.865809
H 179.542879 2.829121 0.491679
H 177.593835 4.416058 1.456661
H 175.951466 0.627180 0.606279
H 175.177517 5.679374 0.884348
H 175.114953 7.748166 2.287119
H 174.057259 7.619081 5.581342
H 174.455457 5.328466 5.786507
H 174.577325 3.282530 4.386843
H 172.257920 3.725365 2.489731
H 170.511861 2.053055 1.631194
C 185.437795 -0.002017 0.002271
C 186.241937 -1.033588 -0.903045
C 185.731166 -1.764795 -1.960324
C 186.767006 -2.582089 -2.457117
C 187.886949 -2.328150 -1.685341
N 187.575919 -1.331227 -0.794117
C 189.290267 -3.062538 -1.819882
C 189.292804 -4.406620 -2.438051
C 189.765421 -4.579437 -3.747183
C 189.770353 -5.843460 -4.337129
C 189.290733 -6.931860 -3.612232
O 189.274316 -8.184683 -4.158188
C 188.799689 -6.778839 -2.321425
C 188.800659 -5.513438 -1.734514
C 190.420060 -2.462014 -1.369299
C 191.713632 -3.109777 -1.436627
C 192.626068 -2.272890 -0.945235
N 190.622043 -1.242115 -0.796810
C 191.952623 -1.058224 -0.536550
C 192.608542 -0.002017 0.002271
C 191.808532 1.303281 0.433067
C 192.353502 2.555061 0.635760
C 191.332286 3.387437 1.134742
C 190.170932 2.639050 1.171323
N 190.468413 1.376891 0.718360
C 188.755136 3.137658 1.706738
C 188.725411 4.354733 2.551592
C 188.873739 5.614949 1.960332
C 188.833966 6.773554 2.741328
C 188.608379 6.668082 4.112312
O 188.513884 7.815745 4.844731
C 188.465491 5.421098 4.721273
C 188.536706 4.264639 3.938352
C 187.617893 2.449293 1.394559
C 186.318423 2.866846 1.878652
C 185.412219 1.995553 1.432748
C 186.090072 1.014038 0.618012
N 187.419308 1.345400 0.630184
H 184.716863 -1.722494 -2.322792
H 186.708320 -3.295045 -3.272237
H 188.240359 -0.869799 -0.176733
H 190.135013 -3.713128 -4.296429
H 190.163263 -5.947685 -5.335851
H 189.575491 -8.099911 -5.076786
H 188.412491 -7.631840 -1.781972
H 188.417150 -5.370005 -0.726403
H 191.922093 -4.099458 -1.810554
H 193.675306 -2.488250 -0.865809
H 193.387248 2.829121 0.491679
H 191.438204 4.416058 1.456661
H 189.795836 0.627180 0.606279
H 189.021887 5.679374 0.884348
H 188.959323 7.748166 2.287119
H 187.901629 7.619081 5.581342
H 188.299827 5.328466 5.786507
H 188.421694 3.282530 4.386843
H 186.102290 3.725365 2.489731
H 184.356231 2.053055 1.631194
