 xtb: 6.5.1 (b24c23e)
          07292217503D

418466  0     0  0            999 V2000
   82.4376   -0.0623    0.0504 C   0  0  0  0  0  0  0  0  0  0  0  0
   83.0516   -1.1464    0.6640 C   0  0  0  0  0  0  0  0  0  0  0  0
   82.4050   -2.2604    1.2697 C   0  0  0  0  0  0  0  0  0  0  0  0
   83.3713   -3.0955    1.7553 C   0  0  0  0  0  0  0  0  0  0  0  0
   84.6399   -2.5143    1.4698 C   0  0  0  0  0  0  0  0  0  0  0  0
   84.3959   -1.3460    0.8051 N   0  0  0  0  0  0  0  0  0  0  0  0
   85.9047   -3.0287    1.7748 C   0  0  0  0  0  0  0  0  0  0  0  0
   87.1182   -2.4281    1.4315 C   0  0  0  0  0  0  0  0  0  0  0  0
   88.4181   -2.9574    1.8039 C   0  0  0  0  0  0  0  0  0  0  0  0
   89.3359   -2.1043    1.3043 C   0  0  0  0  0  0  0  0  0  0  0  0
   87.2683   -1.2683    0.7350 N   0  0  0  0  0  0  0  0  0  0  0  0
   88.5957   -1.0501    0.6375 C   0  0  0  0  0  0  0  0  0  0  0  0
   89.2274    0.0368    0.0019 C   0  0  0  0  0  0  0  0  0  0  0  0
   88.5886    1.1190   -0.6303 C   0  0  0  0  0  0  0  0  0  0  0  0
   89.2288    2.1976   -1.2969 C   0  0  0  0  0  0  0  0  0  0  0  0
   88.2583    3.0292   -1.7826 C   0  0  0  0  0  0  0  0  0  0  0  0
   86.9939    2.4879   -1.4188 C   0  0  0  0  0  0  0  0  0  0  0  0
   85.7300    3.0040   -1.7222 C   0  0  0  0  0  0  0  0  0  0  0  0
   85.6927    4.2825   -2.4742 C   0  0  0  0  0  0  0  0  0  0  0  0
   85.1063    4.3402   -3.7393 C   0  0  0  0  0  0  0  0  0  0  0  0
   85.0751    5.5342   -4.4439 C   0  0  0  0  0  0  0  0  0  0  0  0
   85.6232    6.6846   -3.8931 C   0  0  0  0  0  0  0  0  0  0  0  0
   86.2059    6.6361   -2.6340 C   0  0  0  0  0  0  0  0  0  0  0  0
   86.2441    5.4426   -1.9286 C   0  0  0  0  0  0  0  0  0  0  0  0
   84.5158    2.4053   -1.3708 C   0  0  0  0  0  0  0  0  0  0  0  0
   83.2095    2.9825   -1.6476 C   0  0  0  0  0  0  0  0  0  0  0  0
   82.2983    2.1218   -1.1507 C   0  0  0  0  0  0  0  0  0  0  0  0
   83.0468    1.0246   -0.5630 C   0  0  0  0  0  0  0  0  0  0  0  0
   84.3784    1.2323   -0.7082 N   0  0  0  0  0  0  0  0  0  0  0  0
   87.2458    1.3313   -0.7291 N   0  0  0  0  0  0  0  0  0  0  0  0
   85.9393   -4.3086    2.5256 C   0  0  0  0  0  0  0  0  0  0  0  0
   85.3833   -4.3928    3.8029 C   0  0  0  0  0  0  0  0  0  0  0  0
   85.4181   -5.5879    4.5055 C   0  0  0  0  0  0  0  0  0  0  0  0
   86.0023   -6.7133    3.9402 C   0  0  0  0  0  0  0  0  0  0  0  0
   86.5544   -6.6384    2.6686 C   0  0  0  0  0  0  0  0  0  0  0  0
   86.5261   -5.4437    1.9649 C   0  0  0  0  0  0  0  0  0  0  0  0
   81.3523   -0.0737    0.0566 H   0  0  0  0  0  0  0  0  0  0  0  0
   81.3362   -2.3958    1.3157 H   0  0  0  0  0  0  0  0  0  0  0  0
   83.2250   -4.0368    2.2600 H   0  0  0  0  0  0  0  0  0  0  0  0
   85.1180   -0.7212    0.4624 H   0  0  0  0  0  0  0  0  0  0  0  0
   88.5838   -3.8527    2.3810 H   0  0  0  0  0  0  0  0  0  0  0  0
   90.4106   -2.1554    1.3745 H   0  0  0  0  0  0  0  0  0  0  0  0
   90.2967    2.3095   -1.3938 H   0  0  0  0  0  0  0  0  0  0  0  0
   88.4014    3.9333   -2.3517 H   0  0  0  0  0  0  0  0  0  0  0  0
   84.6891    3.4398   -4.1762 H   0  0  0  0  0  0  0  0  0  0  0  0
   84.6217    5.5660   -5.4284 H   0  0  0  0  0  0  0  0  0  0  0  0
   85.5961    7.6178   -4.4442 H   0  0  0  0  0  0  0  0  0  0  0  0
   86.6321    7.5327   -2.1976 H   0  0  0  0  0  0  0  0  0  0  0  0
   86.6875    5.4100   -0.9395 H   0  0  0  0  0  0  0  0  0  0  0  0
   83.0387    3.9246   -2.1432 H   0  0  0  0  0  0  0  0  0  0  0  0
   81.2222    2.1980   -1.1587 H   0  0  0  0  0  0  0  0  0  0  0  0
   86.5263    0.7192   -0.3588 H   0  0  0  0  0  0  0  0  0  0  0  0
   84.9390   -3.5113    4.2519 H   0  0  0  0  0  0  0  0  0  0  0  0
   84.9886   -5.6400    5.4999 H   0  0  0  0  0  0  0  0  0  0  0  0
   86.0273   -7.6473    4.4901 H   0  0  0  0  0  0  0  0  0  0  0  0
   87.0091   -7.5154    2.2213 H   0  0  0  0  0  0  0  0  0  0  0  0
   86.9469   -5.3902    0.9670 H   0  0  0  0  0  0  0  0  0  0  0  0
  169.9333    0.0778   -0.0293 C   0  0  0  0  0  0  0  0  0  0  0  0
  169.3173    1.1123   -0.7217 C   0  0  0  0  0  0  0  0  0  0  0  0
  169.9616    2.1545   -1.4459 C   0  0  0  0  0  0  0  0  0  0  0  0
  168.9937    2.9664   -1.9666 C   0  0  0  0  0  0  0  0  0  0  0  0
  167.7265    2.4524   -1.5682 C   0  0  0  0  0  0  0  0  0  0  0  0
  167.9728    1.3299   -0.8293 N   0  0  0  0  0  0  0  0  0  0  0  0
  166.4606    2.9658   -1.8703 C   0  0  0  0  0  0  0  0  0  0  0  0
  165.2490    2.3929   -1.4761 C   0  0  0  0  0  0  0  0  0  0  0  0
  163.9494    2.9822   -1.7447 C   0  0  0  0  0  0  0  0  0  0  0  0
  163.0331    2.1436   -1.2183 C   0  0  0  0  0  0  0  0  0  0  0  0
  165.1008    1.2311   -0.7826 N   0  0  0  0  0  0  0  0  0  0  0  0
  163.7741    1.0482   -0.6229 C   0  0  0  0  0  0  0  0  0  0  0  0
  163.1438   -0.0450    0.0037 C   0  0  0  0  0  0  0  0  0  0  0  0
  163.7852   -1.1260    0.6354 C   0  0  0  0  0  0  0  0  0  0  0  0
  163.1489   -2.2362    1.2517 C   0  0  0  0  0  0  0  0  0  0  0  0
  164.1212   -3.0429    1.7749 C   0  0  0  0  0  0  0  0  0  0  0  0
  165.3825   -2.4450    1.5000 C   0  0  0  0  0  0  0  0  0  0  0  0
  166.6467   -2.9308    1.8492 C   0  0  0  0  0  0  0  0  0  0  0  0
  166.6852   -4.1812    2.6467 C   0  0  0  0  0  0  0  0  0  0  0  0
  167.3095   -5.3235    2.1434 C   0  0  0  0  0  0  0  0  0  0  0  0
  167.3437   -6.4908    2.8912 C   0  0  0  0  0  0  0  0  0  0  0  0
  166.7608   -6.5310    4.1506 C   0  0  0  0  0  0  0  0  0  0  0  0
  166.1395   -5.3984    4.6591 C   0  0  0  0  0  0  0  0  0  0  0  0
  166.0983   -4.2308    3.9120 C   0  0  0  0  0  0  0  0  0  0  0  0
  167.8594   -2.3251    1.5048 C   0  0  0  0  0  0  0  0  0  0  0  0
  169.1654   -2.8164    1.9161 C   0  0  0  0  0  0  0  0  0  0  0  0
  170.0751   -1.9746    1.3853 C   0  0  0  0  0  0  0  0  0  0  0  0
  169.3257   -0.9632    0.6607 C   0  0  0  0  0  0  0  0  0  0  0  0
  167.9951   -1.2008    0.7621 N   0  0  0  0  0  0  0  0  0  0  0  0
  165.1277   -1.2952    0.8003 N   0  0  0  0  0  0  0  0  0  0  0  0
  166.4204    4.2149   -2.6706 C   0  0  0  0  0  0  0  0  0  0  0  0
  166.9969    5.3885   -2.1829 C   0  0  0  0  0  0  0  0  0  0  0  0
  166.9565    6.5539   -2.9335 C   0  0  0  0  0  0  0  0  0  0  0  0
  166.3464    6.5606   -4.1805 C   0  0  0  0  0  0  0  0  0  0  0  0
  165.7732    5.3963   -4.6738 C   0  0  0  0  0  0  0  0  0  0  0  0
  165.8069    4.2303   -3.9240 C   0  0  0  0  0  0  0  0  0  0  0  0
  171.0185    0.0931   -0.0324 H   0  0  0  0  0  0  0  0  0  0  0  0
  171.0300    2.2549   -1.5522 H   0  0  0  0  0  0  0  0  0  0  0  0
  169.1380    3.8411   -2.5798 H   0  0  0  0  0  0  0  0  0  0  0  0
  167.2521    0.7428   -0.4232 H   0  0  0  0  0  0  0  0  0  0  0  0
  163.7833    3.9175   -2.2543 H   0  0  0  0  0  0  0  0  0  0  0  0
  161.9589    2.2378   -1.2138 H   0  0  0  0  0  0  0  0  0  0  0  0
  162.0823   -2.3904    1.2822 H   0  0  0  0  0  0  0  0  0  0  0  0
  163.9815   -3.9749    2.2978 H   0  0  0  0  0  0  0  0  0  0  0  0
  167.7541   -5.2977    1.1549 H   0  0  0  0  0  0  0  0  0  0  0  0
  167.8270   -7.3738    2.4881 H   0  0  0  0  0  0  0  0  0  0  0  0
  166.7908   -7.4435    4.7351 H   0  0  0  0  0  0  0  0  0  0  0  0
  165.6859   -5.4232    5.6437 H   0  0  0  0  0  0  0  0  0  0  0  0
  165.6247   -3.3432    4.3168 H   0  0  0  0  0  0  0  0  0  0  0  0
  169.3371   -3.6814    2.5363 H   0  0  0  0  0  0  0  0  0  0  0  0
  171.1505   -2.0037    1.4658 H   0  0  0  0  0  0  0  0  0  0  0  0
  165.8449   -0.6657    0.4555 H   0  0  0  0  0  0  0  0  0  0  0  0
  167.4613    5.3892   -1.2029 H   0  0  0  0  0  0  0  0  0  0  0  0
  167.4022    7.4617   -2.5419 H   0  0  0  0  0  0  0  0  0  0  0  0
  166.3173    7.4720   -4.7668 H   0  0  0  0  0  0  0  0  0  0  0  0
  165.2980    5.3955   -5.6485 H   0  0  0  0  0  0  0  0  0  0  0  0
  165.3694    3.3188   -4.3157 H   0  0  0  0  0  0  0  0  0  0  0  0
   91.8573    0.0687   -0.0153 C   0  0  0  0  0  0  0  0  0  0  0  0
   90.6359    0.0549   -0.0071 C   0  0  0  0  0  0  0  0  0  0  0  0
   93.2085    0.0760   -0.0202 C   0  0  0  0  0  0  0  0  0  0  0  0
   94.4301    0.0763   -0.0250 C   0  0  0  0  0  0  0  0  0  0  0  0
  105.3219    0.0241   -0.0309 C   0  0  0  0  0  0  0  0  0  0  0  0
  104.0992    0.0313   -0.0335 C   0  0  0  0  0  0  0  0  0  0  0  0
  106.6702    0.0197   -0.0270 C   0  0  0  0  0  0  0  0  0  0  0  0
  107.8930    0.0146   -0.0254 C   0  0  0  0  0  0  0  0  0  0  0  0
  118.7827   -0.0020   -0.0029 C   0  0  0  0  0  0  0  0  0  0  0  0
  117.5598    0.0004   -0.0038 C   0  0  0  0  0  0  0  0  0  0  0  0
  120.1308    0.0019   -0.0034 C   0  0  0  0  0  0  0  0  0  0  0  0
  121.3537    0.0030   -0.0075 C   0  0  0  0  0  0  0  0  0  0  0  0
  132.2431    0.0025   -0.0017 C   0  0  0  0  0  0  0  0  0  0  0  0
  131.0202    0.0051   -0.0038 C   0  0  0  0  0  0  0  0  0  0  0  0
  133.5912    0.0056   -0.0016 C   0  0  0  0  0  0  0  0  0  0  0  0
  134.8141    0.0067   -0.0056 C   0  0  0  0  0  0  0  0  0  0  0  0
  145.7037   -0.0041   -0.0251 C   0  0  0  0  0  0  0  0  0  0  0  0
  144.4809   -0.0009   -0.0219 C   0  0  0  0  0  0  0  0  0  0  0  0
  147.0520   -0.0055   -0.0276 C   0  0  0  0  0  0  0  0  0  0  0  0
  148.2748   -0.0114   -0.0315 C   0  0  0  0  0  0  0  0  0  0  0  0
  159.1633   -0.0860    0.0046 C   0  0  0  0  0  0  0  0  0  0  0  0
  157.9416   -0.0790    0.0005 C   0  0  0  0  0  0  0  0  0  0  0  0
  160.5143   -0.0803    0.0069 C   0  0  0  0  0  0  0  0  0  0  0  0
  161.7358   -0.0679    0.0059 C   0  0  0  0  0  0  0  0  0  0  0  0
   95.8378    0.0732   -0.0300 C   0  0  0  0  0  0  0  0  0  0  0  0
   96.4677    1.2405    0.4399 C   0  0  0  0  0  0  0  0  0  0  0  0
   95.8224    2.3987    0.9460 C   0  0  0  0  0  0  0  0  0  0  0  0
   96.7900    3.2991    1.2992 C   0  0  0  0  0  0  0  0  0  0  0  0
   98.0553    2.7193    1.0099 C   0  0  0  0  0  0  0  0  0  0  0  0
   97.8096    1.4727    0.4996 N   0  0  0  0  0  0  0  0  0  0  0  0
   99.3166    3.2895    1.2203 C   0  0  0  0  0  0  0  0  0  0  0  0
  100.5394    2.6692    0.9613 C   0  0  0  0  0  0  0  0  0  0  0  0
  101.8276    3.3150    1.1389 C   0  0  0  0  0  0  0  0  0  0  0  0
  102.7622    2.4067    0.7900 C   0  0  0  0  0  0  0  0  0  0  0  0
  100.7128    1.4010    0.4955 N   0  0  0  0  0  0  0  0  0  0  0  0
  102.0433    1.2126    0.3916 C   0  0  0  0  0  0  0  0  0  0  0  0
  102.6949    0.0380   -0.0368 C   0  0  0  0  0  0  0  0  0  0  0  0
  102.0637   -1.1420   -0.4760 C   0  0  0  0  0  0  0  0  0  0  0  0
  102.7087   -2.3359   -0.8905 C   0  0  0  0  0  0  0  0  0  0  0  0
  101.7409   -3.2343   -1.2486 C   0  0  0  0  0  0  0  0  0  0  0  0
  100.4760   -2.6108   -1.0697 C   0  0  0  0  0  0  0  0  0  0  0  0
   99.2150   -3.1705   -1.3066 C   0  0  0  0  0  0  0  0  0  0  0  0
   99.1975   -4.5503   -1.8544 C   0  0  0  0  0  0  0  0  0  0  0  0
   99.7626   -4.8231   -3.1009 C   0  0  0  0  0  0  0  0  0  0  0  0
   99.7425   -6.1119   -3.6127 C   0  0  0  0  0  0  0  0  0  0  0  0
   99.1644   -7.1431   -2.8851 C   0  0  0  0  0  0  0  0  0  0  0  0
   98.6033   -6.8801   -1.6428 C   0  0  0  0  0  0  0  0  0  0  0  0
   98.6167   -5.5918   -1.1298 C   0  0  0  0  0  0  0  0  0  0  0  0
   97.9917   -2.5403   -1.0719 C   0  0  0  0  0  0  0  0  0  0  0  0
   96.7031   -3.1370   -1.3753 C   0  0  0  0  0  0  0  0  0  0  0  0
   95.7686   -2.2341   -1.0131 C   0  0  0  0  0  0  0  0  0  0  0  0
   96.4875   -1.0843   -0.5005 C   0  0  0  0  0  0  0  0  0  0  0  0
   97.8192   -1.2932   -0.5545 N   0  0  0  0  0  0  0  0  0  0  0  0
  100.7223   -1.3505   -0.5935 N   0  0  0  0  0  0  0  0  0  0  0  0
   99.3351    4.6699    1.7666 C   0  0  0  0  0  0  0  0  0  0  0  0
   98.7707    5.7244    1.0480 C   0  0  0  0  0  0  0  0  0  0  0  0
   98.7917    7.0127    1.5611 C   0  0  0  0  0  0  0  0  0  0  0  0
   99.3700    7.2623    2.7982 C   0  0  0  0  0  0  0  0  0  0  0  0
   99.9310    6.2177    3.5204 C   0  0  0  0  0  0  0  0  0  0  0  0
   99.9168    4.9291    3.0084 C   0  0  0  0  0  0  0  0  0  0  0  0
   94.7542    2.5163    1.0318 H   0  0  0  0  0  0  0  0  0  0  0  0
   96.6428    4.2754    1.7313 H   0  0  0  0  0  0  0  0  0  0  0  0
   98.5289    0.8152    0.2174 H   0  0  0  0  0  0  0  0  0  0  0  0
  101.9747    4.3297    1.4717 H   0  0  0  0  0  0  0  0  0  0  0  0
  103.8353    2.5123    0.7859 H   0  0  0  0  0  0  0  0  0  0  0  0
  103.7767   -2.4818   -0.9046 H   0  0  0  0  0  0  0  0  0  0  0  0
  101.8877   -4.2435   -1.5971 H   0  0  0  0  0  0  0  0  0  0  0  0
  100.2028   -4.0165   -3.6768 H   0  0  0  0  0  0  0  0  0  0  0  0
  100.1793   -6.3112   -4.5851 H   0  0  0  0  0  0  0  0  0  0  0  0
   99.1509   -8.1504   -3.2857 H   0  0  0  0  0  0  0  0  0  0  0  0
   98.1531   -7.6827   -1.0692 H   0  0  0  0  0  0  0  0  0  0  0  0
   98.1888   -5.3900   -0.1542 H   0  0  0  0  0  0  0  0  0  0  0  0
   96.5554   -4.1090   -1.8173 H   0  0  0  0  0  0  0  0  0  0  0  0
   94.6954   -2.3102   -1.0843 H   0  0  0  0  0  0  0  0  0  0  0  0
  100.0035   -0.6749   -0.3568 H   0  0  0  0  0  0  0  0  0  0  0  0
   98.3303    5.5339    0.0755 H   0  0  0  0  0  0  0  0  0  0  0  0
   98.3554    7.8257    0.9913 H   0  0  0  0  0  0  0  0  0  0  0  0
   99.3837    8.2695    3.1988 H   0  0  0  0  0  0  0  0  0  0  0  0
  100.3814    6.4070    4.4884 H   0  0  0  0  0  0  0  0  0  0  0  0
  100.3449    4.1122    3.5785 H   0  0  0  0  0  0  0  0  0  0  0  0
  109.2972    0.0131   -0.0222 C   0  0  0  0  0  0  0  0  0  0  0  0
  109.9230    1.1660    0.4912 C   0  0  0  0  0  0  0  0  0  0  0  0
  109.2729    2.3056    1.0307 C   0  0  0  0  0  0  0  0  0  0  0  0
  110.2368    3.2021    1.4045 C   0  0  0  0  0  0  0  0  0  0  0  0
  111.5039    2.6379    1.0947 C   0  0  0  0  0  0  0  0  0  0  0  0
  111.2634    1.4030    0.5539 N   0  0  0  0  0  0  0  0  0  0  0  0
  112.7628    3.2126    1.3087 C   0  0  0  0  0  0  0  0  0  0  0  0
  113.9881    2.6059    1.0304 C   0  0  0  0  0  0  0  0  0  0  0  0
  115.2728    3.2578    1.2096 C   0  0  0  0  0  0  0  0  0  0  0  0
  116.2115    2.3605    0.8435 C   0  0  0  0  0  0  0  0  0  0  0  0
  114.1673    1.3455    0.5454 N   0  0  0  0  0  0  0  0  0  0  0  0
  115.4984    1.1670    0.4334 C   0  0  0  0  0  0  0  0  0  0  0  0
  116.1558   -0.0001   -0.0071 C   0  0  0  0  0  0  0  0  0  0  0  0
  115.5302   -1.1795   -0.4563 C   0  0  0  0  0  0  0  0  0  0  0  0
  116.1799   -2.3698   -0.8731 C   0  0  0  0  0  0  0  0  0  0  0  0
  115.2158   -3.2676   -1.2435 C   0  0  0  0  0  0  0  0  0  0  0  0
  113.9490   -2.6466   -1.0716 C   0  0  0  0  0  0  0  0  0  0  0  0
  112.6902   -3.2028   -1.3297 C   0  0  0  0  0  0  0  0  0  0  0  0
  112.6776   -4.5786   -1.8872 C   0  0  0  0  0  0  0  0  0  0  0  0
  113.2655   -4.8478   -3.1238 C   0  0  0  0  0  0  0  0  0  0  0  0
  113.2499   -6.1341   -3.6421 C   0  0  0  0  0  0  0  0  0  0  0  0
  112.6533   -7.1663   -2.9309 C   0  0  0  0  0  0  0  0  0  0  0  0
  112.0687   -6.9068   -1.6987 C   0  0  0  0  0  0  0  0  0  0  0  0
  112.0777   -5.6211   -1.1795 C   0  0  0  0  0  0  0  0  0  0  0  0
  111.4649   -2.5734   -1.1064 C   0  0  0  0  0  0  0  0  0  0  0  0
  110.1806   -3.1608   -1.4431 C   0  0  0  0  0  0  0  0  0  0  0  0
  109.2417   -2.2636   -1.0768 C   0  0  0  0  0  0  0  0  0  0  0  0
  109.9542   -1.1278   -0.5263 C   0  0  0  0  0  0  0  0  0  0  0  0
  111.2854   -1.3361   -0.5661 N   0  0  0  0  0  0  0  0  0  0  0  0
  114.1899   -1.3894   -0.5845 N   0  0  0  0  0  0  0  0  0  0  0  0
  112.7750    4.5826    1.8801 C   0  0  0  0  0  0  0  0  0  0  0  0
  112.1945    5.6450    1.1860 C   0  0  0  0  0  0  0  0  0  0  0  0
  112.2095    6.9240    1.7221 C   0  0  0  0  0  0  0  0  0  0  0  0
  112.7975    7.1562    2.9580 C   0  0  0  0  0  0  0  0  0  0  0  0
  113.3744    6.1038    3.6558 C   0  0  0  0  0  0  0  0  0  0  0  0
  113.3665    4.8246    3.1206 C   0  0  0  0  0  0  0  0  0  0  0  0
  108.2044    2.4152    1.1228 H   0  0  0  0  0  0  0  0  0  0  0  0
  110.0857    4.1658    1.8629 H   0  0  0  0  0  0  0  0  0  0  0  0
  111.9852    0.7577    0.2509 H   0  0  0  0  0  0  0  0  0  0  0  0
  115.4150    4.2689    1.5551 H   0  0  0  0  0  0  0  0  0  0  0  0
  117.2839    2.4731    0.8351 H   0  0  0  0  0  0  0  0  0  0  0  0
  117.2481   -2.5145   -0.8804 H   0  0  0  0  0  0  0  0  0  0  0  0
  115.3670   -4.2746   -1.5964 H   0  0  0  0  0  0  0  0  0  0  0  0
  113.7199   -4.0405   -3.6874 H   0  0  0  0  0  0  0  0  0  0  0  0
  113.7048   -6.3307   -4.6066 H   0  0  0  0  0  0  0  0  0  0  0  0
  112.6438   -8.1717   -3.3365 H   0  0  0  0  0  0  0  0  0  0  0  0
  111.6037   -7.7100   -1.1380 H   0  0  0  0  0  0  0  0  0  0  0  0
  111.6314   -5.4219   -0.2116 H   0  0  0  0  0  0  0  0  0  0  0  0
  110.0385   -4.1224   -1.9089 H   0  0  0  0  0  0  0  0  0  0  0  0
  108.1696   -2.3361   -1.1666 H   0  0  0  0  0  0  0  0  0  0  0  0
  113.4684   -0.7165   -0.3485 H   0  0  0  0  0  0  0  0  0  0  0  0
  111.7465    5.4682    0.2145 H   0  0  0  0  0  0  0  0  0  0  0  0
  111.7608    7.7433    1.1713 H   0  0  0  0  0  0  0  0  0  0  0  0
  112.8064    8.1562    3.3767 H   0  0  0  0  0  0  0  0  0  0  0  0
  113.8326    6.2795    4.6228 H   0  0  0  0  0  0  0  0  0  0  0  0
  113.8071    4.0013    3.6718 H   0  0  0  0  0  0  0  0  0  0  0  0
  122.7577    0.0062   -0.0098 C   0  0  0  0  0  0  0  0  0  0  0  0
  123.3827    1.1611    0.5002 C   0  0  0  0  0  0  0  0  0  0  0  0
  122.7319    2.3006    1.0391 C   0  0  0  0  0  0  0  0  0  0  0  0
  123.6951    3.2005    1.4066 C   0  0  0  0  0  0  0  0  0  0  0  0
  124.9623    2.6384    1.0939 C   0  0  0  0  0  0  0  0  0  0  0  0
  124.7227    1.4015    0.5572 N   0  0  0  0  0  0  0  0  0  0  0  0
  126.2207    3.2159    1.3033 C   0  0  0  0  0  0  0  0  0  0  0  0
  127.4465    2.6103    1.0245 C   0  0  0  0  0  0  0  0  0  0  0  0
  128.7307    3.2639    1.2017 C   0  0  0  0  0  0  0  0  0  0  0  0
  129.6701    2.3665    0.8377 C   0  0  0  0  0  0  0  0  0  0  0  0
  127.6267    1.3491    0.5423 N   0  0  0  0  0  0  0  0  0  0  0  0
  128.9581    1.1715    0.4304 C   0  0  0  0  0  0  0  0  0  0  0  0
  129.6162    0.0042   -0.0080 C   0  0  0  0  0  0  0  0  0  0  0  0
  128.9914   -1.1759   -0.4570 C   0  0  0  0  0  0  0  0  0  0  0  0
  129.6420   -2.3658   -0.8731 C   0  0  0  0  0  0  0  0  0  0  0  0
  128.6787   -3.2641   -1.2443 C   0  0  0  0  0  0  0  0  0  0  0  0
  127.4115   -2.6437   -1.0734 C   0  0  0  0  0  0  0  0  0  0  0  0
  126.1532   -3.2012   -1.3317 C   0  0  0  0  0  0  0  0  0  0  0  0
  126.1423   -4.5762   -1.8908 C   0  0  0  0  0  0  0  0  0  0  0  0
  126.7300   -4.8430   -3.1280 C   0  0  0  0  0  0  0  0  0  0  0  0
  126.7169   -6.1288   -3.6475 C   0  0  0  0  0  0  0  0  0  0  0  0
  126.1231   -7.1630   -2.9369 C   0  0  0  0  0  0  0  0  0  0  0  0
  125.5386   -6.9059   -1.7042 C   0  0  0  0  0  0  0  0  0  0  0  0
  125.5449   -5.6207   -1.1837 C   0  0  0  0  0  0  0  0  0  0  0  0
  124.9274   -2.5739   -1.1059 C   0  0  0  0  0  0  0  0  0  0  0  0
  123.6433   -3.1627   -1.4408 C   0  0  0  0  0  0  0  0  0  0  0  0
  122.7038   -2.2684   -1.0694 C   0  0  0  0  0  0  0  0  0  0  0  0
  123.4158   -1.1324   -0.5183 C   0  0  0  0  0  0  0  0  0  0  0  0
  124.7471   -1.3378   -0.5625 N   0  0  0  0  0  0  0  0  0  0  0  0
  127.6514   -1.3865   -0.5863 N   0  0  0  0  0  0  0  0  0  0  0  0
  126.2317    4.5871    1.8719 C   0  0  0  0  0  0  0  0  0  0  0  0
  125.6469    5.6470    1.1777 C   0  0  0  0  0  0  0  0  0  0  0  0
  125.6604    6.9269    1.7116 C   0  0  0  0  0  0  0  0  0  0  0  0
  126.2513    7.1626    2.9454 C   0  0  0  0  0  0  0  0  0  0  0  0
  126.8328    6.1127    3.6433 C   0  0  0  0  0  0  0  0  0  0  0  0
  126.8262    4.8326    3.1104 C   0  0  0  0  0  0  0  0  0  0  0  0
  121.6635    2.4079    1.1350 H   0  0  0  0  0  0  0  0  0  0  0  0
  123.5432    4.1652    1.8626 H   0  0  0  0  0  0  0  0  0  0  0  0
  125.4449    0.7571    0.2532 H   0  0  0  0  0  0  0  0  0  0  0  0
  128.8722    4.2760    1.5446 H   0  0  0  0  0  0  0  0  0  0  0  0
  130.7424    2.4800    0.8289 H   0  0  0  0  0  0  0  0  0  0  0  0
  130.7104   -2.5100   -0.8793 H   0  0  0  0  0  0  0  0  0  0  0  0
  128.8305   -4.2712   -1.5969 H   0  0  0  0  0  0  0  0  0  0  0  0
  127.1825   -4.0341   -3.6909 H   0  0  0  0  0  0  0  0  0  0  0  0
  127.1716   -6.3236   -4.6125 H   0  0  0  0  0  0  0  0  0  0  0  0
  126.1157   -8.1680   -3.3433 H   0  0  0  0  0  0  0  0  0  0  0  0
  125.0758   -7.7108   -1.1439 H   0  0  0  0  0  0  0  0  0  0  0  0
  125.0987   -5.4234   -0.2154 H   0  0  0  0  0  0  0  0  0  0  0  0
  123.5018   -4.1234   -1.9087 H   0  0  0  0  0  0  0  0  0  0  0  0
  121.6316   -2.3425   -1.1564 H   0  0  0  0  0  0  0  0  0  0  0  0
  126.9291   -0.7141   -0.3506 H   0  0  0  0  0  0  0  0  0  0  0  0
  125.1966    5.4674    0.2077 H   0  0  0  0  0  0  0  0  0  0  0  0
  125.2081    7.7441    1.1607 H   0  0  0  0  0  0  0  0  0  0  0  0
  126.2590    8.1633    3.3624 H   0  0  0  0  0  0  0  0  0  0  0  0
  127.2933    6.2911    4.6087 H   0  0  0  0  0  0  0  0  0  0  0  0
  127.2701    4.0113    3.6618 H   0  0  0  0  0  0  0  0  0  0  0  0
  136.2181    0.0080   -0.0082 C   0  0  0  0  0  0  0  0  0  0  0  0
  136.8451    1.1622    0.5007 C   0  0  0  0  0  0  0  0  0  0  0  0
  136.1964    2.3028    1.0398 C   0  0  0  0  0  0  0  0  0  0  0  0
  137.1611    3.2010    1.4075 C   0  0  0  0  0  0  0  0  0  0  0  0
  138.4275    2.6368    1.0943 C   0  0  0  0  0  0  0  0  0  0  0  0
  138.1855    1.4004    0.5574 N   0  0  0  0  0  0  0  0  0  0  0  0
  139.6868    3.2123    1.3030 C   0  0  0  0  0  0  0  0  0  0  0  0
  140.9116    2.6059    1.0212 C   0  0  0  0  0  0  0  0  0  0  0  0
  142.1967    3.2585    1.1958 C   0  0  0  0  0  0  0  0  0  0  0  0
  143.1346    2.3613    0.8271 C   0  0  0  0  0  0  0  0  0  0  0  0
  141.0898    1.3454    0.5366 N   0  0  0  0  0  0  0  0  0  0  0  0
  142.4208    1.1673    0.4202 C   0  0  0  0  0  0  0  0  0  0  0  0
  143.0768   -0.0001   -0.0209 C   0  0  0  0  0  0  0  0  0  0  0  0
  142.4498   -1.1805   -0.4660 C   0  0  0  0  0  0  0  0  0  0  0  0
  143.0985   -2.3716   -0.8816 C   0  0  0  0  0  0  0  0  0  0  0  0
  142.1336   -3.2703   -1.2476 C   0  0  0  0  0  0  0  0  0  0  0  0
  140.8674   -2.6488   -1.0742 C   0  0  0  0  0  0  0  0  0  0  0  0
  139.6080   -3.2056   -1.3290 C   0  0  0  0  0  0  0  0  0  0  0  0
  139.5949   -4.5811   -1.8871 C   0  0  0  0  0  0  0  0  0  0  0  0
  140.1790   -4.8484   -3.1260 C   0  0  0  0  0  0  0  0  0  0  0  0
  140.1637   -6.1342   -3.6453 C   0  0  0  0  0  0  0  0  0  0  0  0
  139.5714   -7.1680   -2.9327 C   0  0  0  0  0  0  0  0  0  0  0  0
  138.9908   -6.9105   -1.6983 C   0  0  0  0  0  0  0  0  0  0  0  0
  138.9993   -5.6251   -1.1780 C   0  0  0  0  0  0  0  0  0  0  0  0
  138.3833   -2.5767   -1.1023 C   0  0  0  0  0  0  0  0  0  0  0  0
  137.0982   -3.1643   -1.4352 C   0  0  0  0  0  0  0  0  0  0  0  0
  136.1602   -2.2679   -1.0648 C   0  0  0  0  0  0  0  0  0  0  0  0
  136.8742   -1.1322   -0.5158 C   0  0  0  0  0  0  0  0  0  0  0  0
  138.2051   -1.3396   -0.5605 N   0  0  0  0  0  0  0  0  0  0  0  0
  141.1092   -1.3907   -0.5904 N   0  0  0  0  0  0  0  0  0  0  0  0
  139.7005    4.5832    1.8724 C   0  0  0  0  0  0  0  0  0  0  0  0
  139.1153    5.6440    1.1798 C   0  0  0  0  0  0  0  0  0  0  0  0
  139.1316    6.9238    1.7139 C   0  0  0  0  0  0  0  0  0  0  0  0
  139.7261    7.1586    2.9463 C   0  0  0  0  0  0  0  0  0  0  0  0
  140.3078    6.1078    3.6426 C   0  0  0  0  0  0  0  0  0  0  0  0
  140.2982    4.8277    3.1095 C   0  0  0  0  0  0  0  0  0  0  0  0
  135.1281    2.4120    1.1357 H   0  0  0  0  0  0  0  0  0  0  0  0
  137.0109    4.1657    1.8638 H   0  0  0  0  0  0  0  0  0  0  0  0
  138.9067    0.7548    0.2532 H   0  0  0  0  0  0  0  0  0  0  0  0
  142.3398    4.2698    1.5402 H   0  0  0  0  0  0  0  0  0  0  0  0
  144.2069    2.4744    0.8152 H   0  0  0  0  0  0  0  0  0  0  0  0
  144.1668   -2.5162   -0.8910 H   0  0  0  0  0  0  0  0  0  0  0  0
  142.2837   -4.2783   -1.5982 H   0  0  0  0  0  0  0  0  0  0  0  0
  140.6303   -4.0397   -3.6902 H   0  0  0  0  0  0  0  0  0  0  0  0
  140.6154   -6.3293   -4.6116 H   0  0  0  0  0  0  0  0  0  0  0  0
  139.5622   -8.1730   -3.3391 H   0  0  0  0  0  0  0  0  0  0  0  0
  138.5294   -7.7150   -1.1365 H   0  0  0  0  0  0  0  0  0  0  0  0
  138.5560   -5.4275   -0.2084 H   0  0  0  0  0  0  0  0  0  0  0  0
  136.9550   -4.1256   -1.9015 H   0  0  0  0  0  0  0  0  0  0  0  0
  135.0878   -2.3407   -1.1512 H   0  0  0  0  0  0  0  0  0  0  0  0
  140.3881   -0.7173   -0.3541 H   0  0  0  0  0  0  0  0  0  0  0  0
  138.6625    5.4653    0.2108 H   0  0  0  0  0  0  0  0  0  0  0  0
  138.6790    7.7417    1.1643 H   0  0  0  0  0  0  0  0  0  0  0  0
  139.7363    8.1592    3.3634 H   0  0  0  0  0  0  0  0  0  0  0  0
  140.7711    6.2854    4.6068 H   0  0  0  0  0  0  0  0  0  0  0  0
  140.7424    4.0057    3.6598 H   0  0  0  0  0  0  0  0  0  0  0  0
  149.6789   -0.0168   -0.0335 C   0  0  0  0  0  0  0  0  0  0  0  0
  150.3109    1.1415    0.4593 C   0  0  0  0  0  0  0  0  0  0  0  0
  149.6672    2.2930    0.9815 C   0  0  0  0  0  0  0  0  0  0  0  0
  150.6356    3.1953    1.3284 C   0  0  0  0  0  0  0  0  0  0  0  0
  151.8994    2.6230    1.0187 C   0  0  0  0  0  0  0  0  0  0  0  0
  151.6521    1.3771    0.5065 N   0  0  0  0  0  0  0  0  0  0  0  0
  153.1607    3.2011    1.2047 C   0  0  0  0  0  0  0  0  0  0  0  0
  154.3825    2.5842    0.9295 C   0  0  0  0  0  0  0  0  0  0  0  0
  155.6702    3.2397    1.0734 C   0  0  0  0  0  0  0  0  0  0  0  0
  156.6040    2.3276    0.7328 C   0  0  0  0  0  0  0  0  0  0  0  0
  154.5543    1.3082    0.4880 N   0  0  0  0  0  0  0  0  0  0  0  0
  155.8855    1.1207    0.3743 C   0  0  0  0  0  0  0  0  0  0  0  0
  156.5345   -0.0695   -0.0074 C   0  0  0  0  0  0  0  0  0  0  0  0
  155.9026   -1.2629   -0.4040 C   0  0  0  0  0  0  0  0  0  0  0  0
  156.5448   -2.4739   -0.7709 C   0  0  0  0  0  0  0  0  0  0  0  0
  155.5766   -3.3718   -1.1291 C   0  0  0  0  0  0  0  0  0  0  0  0
  154.3145   -2.7311   -0.9985 C   0  0  0  0  0  0  0  0  0  0  0  0
  153.0543   -3.2780   -1.2699 C   0  0  0  0  0  0  0  0  0  0  0  0
  153.0372   -4.6599   -1.8118 C   0  0  0  0  0  0  0  0  0  0  0  0
  153.6463   -4.9464   -3.0343 C   0  0  0  0  0  0  0  0  0  0  0  0
  153.6263   -6.2366   -3.5423 C   0  0  0  0  0  0  0  0  0  0  0  0
  153.0044   -7.2561   -2.8343 C   0  0  0  0  0  0  0  0  0  0  0  0
  152.3993   -6.9796   -1.6158 C   0  0  0  0  0  0  0  0  0  0  0  0
  152.4124   -5.6896   -1.1070 C   0  0  0  0  0  0  0  0  0  0  0  0
  151.8329   -2.6319   -1.0759 C   0  0  0  0  0  0  0  0  0  0  0  0
  150.5466   -3.2105   -1.4202 C   0  0  0  0  0  0  0  0  0  0  0  0
  149.6125   -2.3020   -1.0702 C   0  0  0  0  0  0  0  0  0  0  0  0
  150.3303   -1.1669   -0.5246 C   0  0  0  0  0  0  0  0  0  0  0  0
  151.6596   -1.3866   -0.5516 N   0  0  0  0  0  0  0  0  0  0  0  0
  154.5616   -1.4635   -0.5441 N   0  0  0  0  0  0  0  0  0  0  0  0
  153.1814    4.5844    1.7425 C   0  0  0  0  0  0  0  0  0  0  0  0
  152.5867    5.6299    1.0348 C   0  0  0  0  0  0  0  0  0  0  0  0
  152.6086    6.9208    1.5412 C   0  0  0  0  0  0  0  0  0  0  0  0
  153.2182    7.1824    2.7607 C   0  0  0  0  0  0  0  0  0  0  0  0
  153.8098    6.1471    3.4718 C   0  0  0  0  0  0  0  0  0  0  0  0
  153.7947    4.8560    2.9664 C   0  0  0  0  0  0  0  0  0  0  0  0
  148.5997    2.4062    1.0804 H   0  0  0  0  0  0  0  0  0  0  0  0
  150.4896    4.1684    1.7681 H   0  0  0  0  0  0  0  0  0  0  0  0
  152.3703    0.7242    0.2112 H   0  0  0  0  0  0  0  0  0  0  0  0
  155.8171    4.2626    1.3801 H   0  0  0  0  0  0  0  0  0  0  0  0
  157.6765    2.4372    0.7117 H   0  0  0  0  0  0  0  0  0  0  0  0
  157.6114   -2.6301   -0.7566 H   0  0  0  0  0  0  0  0  0  0  0  0
  155.7212   -4.3912   -1.4478 H   0  0  0  0  0  0  0  0  0  0  0  0
  154.1209   -4.1488   -3.5951 H   0  0  0  0  0  0  0  0  0  0  0  0
  154.0974   -6.4464   -4.4962 H   0  0  0  0  0  0  0  0  0  0  0  0
  152.9912   -8.2646   -3.2318 H   0  0  0  0  0  0  0  0  0  0  0  0
  151.9149   -7.7730   -1.0575 H   0  0  0  0  0  0  0  0  0  0  0  0
  151.9496   -5.4775   -0.1497 H   0  0  0  0  0  0  0  0  0  0  0  0
  150.4004   -4.1751   -1.8786 H   0  0  0  0  0  0  0  0  0  0  0  0
  148.5407   -2.3657   -1.1696 H   0  0  0  0  0  0  0  0  0  0  0  0
  153.8443   -0.7747   -0.3435 H   0  0  0  0  0  0  0  0  0  0  0  0
  152.1221    5.4303    0.0755 H   0  0  0  0  0  0  0  0  0  0  0  0
  152.1483    7.7264    0.9799 H   0  0  0  0  0  0  0  0  0  0  0  0
  153.2324    8.1916    3.1562 H   0  0  0  0  0  0  0  0  0  0  0  0
  154.2849    6.3457    4.4261 H   0  0  0  0  0  0  0  0  0  0  0  0
  154.2464    4.0463    3.5286 H   0  0  0  0  0  0  0  0  0  0  0  0
  1  2  4  0  0  0  0
  2  3  4  0  0  0  0
  3  4  2  0  0  0  0
  4  5  4  0  0  0  0
  2  6  4  0  0  0  0
  5  6  4  0  0  0  0
  5  7  4  0  0  0  0
  7  8  4  0  0  0  0
  8  9  1  0  0  0  0
  9 10  2  0  0  0  0
  8 11  4  0  0  0  0
 10 12  1  0  0  0  0
 11 12  4  0  0  0  0
 12 13  4  0  0  0  0
 13 14  4  0  0  0  0
 14 15  4  0  0  0  0
 15 16  2  0  0  0  0
 16 17  4  0  0  0  0
 17 18  4  0  0  0  0
 18 19  1  0  0  0  0
 19 20  4  0  0  0  0
 20 21  4  0  0  0  0
 21 22  4  0  0  0  0
 22 23  4  0  0  0  0
 19 24  4  0  0  0  0
 23 24  4  0  0  0  0
 18 25  4  0  0  0  0
 25 26  1  0  0  0  0
 26 27  2  0  0  0  0
  1 28  4  0  0  0  0
 27 28  1  0  0  0  0
 25 29  4  0  0  0  0
 28 29  4  0  0  0  0
 14 30  4  0  0  0  0
 17 30  4  0  0  0  0
  7 31  1  0  0  0  0
 31 32  4  0  0  0  0
 32 33  4  0  0  0  0
 33 34  4  0  0  0  0
 34 35  4  0  0  0  0
 31 36  4  0  0  0  0
 35 36  4  0  0  0  0
  1 37  1  0  0  0  0
  3 38  1  0  0  0  0
  4 39  1  0  0  0  0
  6 40  1  0  0  0  0
  9 41  1  0  0  0  0
 10 42  1  0  0  0  0
 15 43  1  0  0  0  0
 16 44  1  0  0  0  0
 20 45  1  0  0  0  0
 21 46  1  0  0  0  0
 22 47  1  0  0  0  0
 23 48  1  0  0  0  0
 24 49  1  0  0  0  0
 26 50  1  0  0  0  0
 27 51  1  0  0  0  0
 30 52  1  0  0  0  0
 32 53  1  0  0  0  0
 33 54  1  0  0  0  0
 34 55  1  0  0  0  0
 35 56  1  0  0  0  0
 36 57  1  0  0  0  0
 58 59  4  0  0  0  0
 59 60  4  0  0  0  0
 60 61  2  0  0  0  0
 61 62  4  0  0  0  0
 59 63  4  0  0  0  0
 62 63  4  0  0  0  0
 62 64  4  0  0  0  0
 64 65  4  0  0  0  0
 65 66  1  0  0  0  0
 66 67  2  0  0  0  0
 65 68  4  0  0  0  0
 67 69  1  0  0  0  0
 68 69  4  0  0  0  0
 69 70  4  0  0  0  0
 70 71  4  0  0  0  0
 71 72  4  0  0  0  0
 72 73  2  0  0  0  0
 73 74  4  0  0  0  0
 74 75  4  0  0  0  0
 75 76  1  0  0  0  0
 76 77  4  0  0  0  0
 77 78  4  0  0  0  0
 78 79  4  0  0  0  0
 79 80  4  0  0  0  0
 76 81  4  0  0  0  0
 80 81  4  0  0  0  0
 75 82  4  0  0  0  0
 82 83  1  0  0  0  0
 83 84  2  0  0  0  0
 58 85  4  0  0  0  0
 84 85  1  0  0  0  0
 82 86  4  0  0  0  0
 85 86  4  0  0  0  0
 71 87  4  0  0  0  0
 74 87  4  0  0  0  0
 64 88  1  0  0  0  0
 88 89  4  0  0  0  0
 89 90  4  0  0  0  0
 90 91  4  0  0  0  0
 91 92  4  0  0  0  0
 88 93  4  0  0  0  0
 92 93  4  0  0  0  0
 58 94  1  0  0  0  0
 60 95  1  0  0  0  0
 61 96  1  0  0  0  0
 63 97  1  0  0  0  0
 66 98  1  0  0  0  0
 67 99  1  0  0  0  0
 72100  1  0  0  0  0
 73101  1  0  0  0  0
 77102  1  0  0  0  0
 78103  1  0  0  0  0
 79104  1  0  0  0  0
 80105  1  0  0  0  0
 81106  1  0  0  0  0
 83107  1  0  0  0  0
 84108  1  0  0  0  0
 87109  1  0  0  0  0
 89110  1  0  0  0  0
 90111  1  0  0  0  0
 91112  1  0  0  0  0
 92113  1  0  0  0  0
 93114  1  0  0  0  0
 13116  4  0  0  0  0
115116  3  0  0  0  0
115117  4  0  0  0  0
117118  3  0  0  0  0
119120  3  0  0  0  0
119121  4  0  0  0  0
121122  3  0  0  0  0
123124  3  0  0  0  0
123125  4  0  0  0  0
125126  3  0  0  0  0
127128  3  0  0  0  0
127129  4  0  0  0  0
129130  3  0  0  0  0
131132  3  0  0  0  0
131133  4  0  0  0  0
133134  3  0  0  0  0
135136  3  0  0  0  0
135137  4  0  0  0  0
 70138  4  0  0  0  0
137138  3  0  0  0  0
118139  4  0  0  0  0
139140  4  0  0  0  0
140141  4  0  0  0  0
141142  2  0  0  0  0
142143  4  0  0  0  0
140144  4  0  0  0  0
143144  4  0  0  0  0
143145  4  0  0  0  0
145146  4  0  0  0  0
146147  1  0  0  0  0
147148  2  0  0  0  0
146149  4  0  0  0  0
148150  1  0  0  0  0
149150  4  0  0  0  0
120151  4  0  0  0  0
150151  4  0  0  0  0
151152  4  0  0  0  0
152153  4  0  0  0  0
153154  2  0  0  0  0
154155  4  0  0  0  0
155156  4  0  0  0  0
156157  1  0  0  0  0
157158  4  0  0  0  0
158159  4  0  0  0  0
159160  4  0  0  0  0
160161  4  0  0  0  0
157162  4  0  0  0  0
161162  4  0  0  0  0
156163  4  0  0  0  0
163164  1  0  0  0  0
164165  2  0  0  0  0
139166  4  0  0  0  0
165166  1  0  0  0  0
163167  4  0  0  0  0
166167  4  0  0  0  0
152168  4  0  0  0  0
155168  4  0  0  0  0
145169  1  0  0  0  0
169170  4  0  0  0  0
170171  4  0  0  0  0
171172  4  0  0  0  0
172173  4  0  0  0  0
169174  4  0  0  0  0
173174  4  0  0  0  0
141175  1  0  0  0  0
142176  1  0  0  0  0
144177  1  0  0  0  0
147178  1  0  0  0  0
148179  1  0  0  0  0
153180  1  0  0  0  0
154181  1  0  0  0  0
158182  1  0  0  0  0
159183  1  0  0  0  0
160184  1  0  0  0  0
161185  1  0  0  0  0
162186  1  0  0  0  0
164187  1  0  0  0  0
165188  1  0  0  0  0
168189  1  0  0  0  0
170190  1  0  0  0  0
171191  1  0  0  0  0
172192  1  0  0  0  0
173193  1  0  0  0  0
174194  1  0  0  0  0
122195  4  0  0  0  0
195196  4  0  0  0  0
196197  4  0  0  0  0
197198  2  0  0  0  0
198199  4  0  0  0  0
196200  4  0  0  0  0
199200  4  0  0  0  0
199201  4  0  0  0  0
201202  4  0  0  0  0
202203  1  0  0  0  0
203204  2  0  0  0  0
202205  4  0  0  0  0
204206  1  0  0  0  0
205206  4  0  0  0  0
124207  4  0  0  0  0
206207  4  0  0  0  0
207208  4  0  0  0  0
208209  4  0  0  0  0
209210  2  0  0  0  0
210211  4  0  0  0  0
211212  4  0  0  0  0
212213  1  0  0  0  0
213214  4  0  0  0  0
214215  4  0  0  0  0
215216  4  0  0  0  0
216217  4  0  0  0  0
213218  4  0  0  0  0
217218  4  0  0  0  0
212219  4  0  0  0  0
219220  1  0  0  0  0
220221  2  0  0  0  0
195222  4  0  0  0  0
221222  1  0  0  0  0
219223  4  0  0  0  0
222223  4  0  0  0  0
208224  4  0  0  0  0
211224  4  0  0  0  0
201225  1  0  0  0  0
225226  4  0  0  0  0
226227  4  0  0  0  0
227228  4  0  0  0  0
228229  4  0  0  0  0
225230  4  0  0  0  0
229230  4  0  0  0  0
197231  1  0  0  0  0
198232  1  0  0  0  0
200233  1  0  0  0  0
203234  1  0  0  0  0
204235  1  0  0  0  0
209236  1  0  0  0  0
210237  1  0  0  0  0
214238  1  0  0  0  0
215239  1  0  0  0  0
216240  1  0  0  0  0
217241  1  0  0  0  0
218242  1  0  0  0  0
220243  1  0  0  0  0
221244  1  0  0  0  0
224245  1  0  0  0  0
226246  1  0  0  0  0
227247  1  0  0  0  0
228248  1  0  0  0  0
229249  1  0  0  0  0
230250  1  0  0  0  0
126251  4  0  0  0  0
251252  4  0  0  0  0
252253  4  0  0  0  0
253254  2  0  0  0  0
254255  4  0  0  0  0
252256  4  0  0  0  0
255256  4  0  0  0  0
255257  4  0  0  0  0
257258  4  0  0  0  0
258259  1  0  0  0  0
259260  2  0  0  0  0
258261  4  0  0  0  0
260262  1  0  0  0  0
261262  4  0  0  0  0
128263  4  0  0  0  0
262263  4  0  0  0  0
263264  4  0  0  0  0
264265  4  0  0  0  0
265266  2  0  0  0  0
266267  4  0  0  0  0
267268  4  0  0  0  0
268269  1  0  0  0  0
269270  4  0  0  0  0
270271  4  0  0  0  0
271272  4  0  0  0  0
272273  4  0  0  0  0
269274  4  0  0  0  0
273274  4  0  0  0  0
268275  4  0  0  0  0
275276  1  0  0  0  0
276277  2  0  0  0  0
251278  4  0  0  0  0
277278  1  0  0  0  0
275279  4  0  0  0  0
278279  4  0  0  0  0
264280  4  0  0  0  0
267280  4  0  0  0  0
257281  1  0  0  0  0
281282  4  0  0  0  0
282283  4  0  0  0  0
283284  4  0  0  0  0
284285  4  0  0  0  0
281286  4  0  0  0  0
285286  4  0  0  0  0
253287  1  0  0  0  0
254288  1  0  0  0  0
256289  1  0  0  0  0
259290  1  0  0  0  0
260291  1  0  0  0  0
265292  1  0  0  0  0
266293  1  0  0  0  0
270294  1  0  0  0  0
271295  1  0  0  0  0
272296  1  0  0  0  0
273297  1  0  0  0  0
274298  1  0  0  0  0
276299  1  0  0  0  0
277300  1  0  0  0  0
280301  1  0  0  0  0
282302  1  0  0  0  0
283303  1  0  0  0  0
284304  1  0  0  0  0
285305  1  0  0  0  0
286306  1  0  0  0  0
130307  4  0  0  0  0
307308  4  0  0  0  0
308309  4  0  0  0  0
309310  2  0  0  0  0
310311  4  0  0  0  0
308312  4  0  0  0  0
311312  4  0  0  0  0
311313  4  0  0  0  0
313314  4  0  0  0  0
314315  1  0  0  0  0
315316  2  0  0  0  0
314317  4  0  0  0  0
316318  1  0  0  0  0
317318  4  0  0  0  0
132319  4  0  0  0  0
318319  4  0  0  0  0
319320  4  0  0  0  0
320321  4  0  0  0  0
321322  2  0  0  0  0
322323  4  0  0  0  0
323324  4  0  0  0  0
324325  1  0  0  0  0
325326  4  0  0  0  0
326327  4  0  0  0  0
327328  4  0  0  0  0
328329  4  0  0  0  0
325330  4  0  0  0  0
329330  4  0  0  0  0
324331  4  0  0  0  0
331332  1  0  0  0  0
332333  2  0  0  0  0
307334  4  0  0  0  0
333334  1  0  0  0  0
331335  4  0  0  0  0
334335  4  0  0  0  0
320336  4  0  0  0  0
323336  4  0  0  0  0
313337  1  0  0  0  0
337338  4  0  0  0  0
338339  4  0  0  0  0
339340  4  0  0  0  0
340341  4  0  0  0  0
337342  4  0  0  0  0
341342  4  0  0  0  0
309343  1  0  0  0  0
310344  1  0  0  0  0
312345  1  0  0  0  0
315346  1  0  0  0  0
316347  1  0  0  0  0
321348  1  0  0  0  0
322349  1  0  0  0  0
326350  1  0  0  0  0
327351  1  0  0  0  0
328352  1  0  0  0  0
329353  1  0  0  0  0
330354  1  0  0  0  0
332355  1  0  0  0  0
333356  1  0  0  0  0
336357  1  0  0  0  0
338358  1  0  0  0  0
339359  1  0  0  0  0
340360  1  0  0  0  0
341361  1  0  0  0  0
342362  1  0  0  0  0
134363  4  0  0  0  0
363364  4  0  0  0  0
364365  4  0  0  0  0
365366  2  0  0  0  0
366367  4  0  0  0  0
364368  4  0  0  0  0
367368  4  0  0  0  0
367369  4  0  0  0  0
369370  4  0  0  0  0
370371  1  0  0  0  0
371372  2  0  0  0  0
370373  4  0  0  0  0
372374  1  0  0  0  0
373374  4  0  0  0  0
136375  4  0  0  0  0
374375  4  0  0  0  0
375376  4  0  0  0  0
376377  4  0  0  0  0
377378  2  0  0  0  0
378379  4  0  0  0  0
379380  4  0  0  0  0
380381  1  0  0  0  0
381382  4  0  0  0  0
382383  4  0  0  0  0
383384  4  0  0  0  0
384385  4  0  0  0  0
381386  4  0  0  0  0
385386  4  0  0  0  0
380387  4  0  0  0  0
387388  1  0  0  0  0
388389  2  0  0  0  0
363390  4  0  0  0  0
389390  1  0  0  0  0
387391  4  0  0  0  0
390391  4  0  0  0  0
376392  4  0  0  0  0
379392  4  0  0  0  0
369393  1  0  0  0  0
393394  4  0  0  0  0
394395  4  0  0  0  0
395396  4  0  0  0  0
396397  4  0  0  0  0
393398  4  0  0  0  0
397398  4  0  0  0  0
365399  1  0  0  0  0
366400  1  0  0  0  0
368401  1  0  0  0  0
371402  1  0  0  0  0
372403  1  0  0  0  0
377404  1  0  0  0  0
378405  1  0  0  0  0
382406  1  0  0  0  0
383407  1  0  0  0  0
384408  1  0  0  0  0
385409  1  0  0  0  0
386410  1  0  0  0  0
388411  1  0  0  0  0
389412  1  0  0  0  0
392413  1  0  0  0  0
394414  1  0  0  0  0
395415  1  0  0  0  0
396416  1  0  0  0  0
397417  1  0  0  0  0
398418  1  0  0  0  0
M  END
