244

Cu 51.400196 -0.038275 0.042646
C 48.058602 0.105013 0.033144
C 48.720871 1.144086 -0.483646
C 48.070322 2.291942 -1.103831
C 49.010537 3.140428 -1.476275
C 50.315460 2.579563 -1.099408
N 50.138307 1.306058 -0.477646
C 51.507582 3.181678 -1.292046
C 51.557306 4.527210 -1.908767
C 52.114246 4.695189 -3.185449
C 52.177504 5.966194 -3.764106
C 51.688496 7.082733 -3.071176
N 51.753406 8.382550 -3.663685
C 51.137447 6.916827 -1.792622
C 51.074532 5.646476 -1.212607
C 52.798770 2.556549 -0.901978
C 54.082226 3.269190 -0.895808
C 55.016739 2.413820 -0.533921
N 52.941433 1.314660 -0.553060
C 54.336625 1.145428 -0.302392
C 54.930823 -0.012707 0.028015
C 54.167240 -1.258718 0.260819
C 54.697761 -2.474903 0.240968
C 53.654865 -3.406503 0.624712
C 52.557232 -2.696424 0.858481
N 52.791078 -1.304581 0.638055
C 51.278618 -3.267447 1.353991
C 51.301438 -4.605434 1.993901
C 52.040390 -4.809399 3.169431
C 52.081366 -6.073054 3.765892
C 51.389183 -7.148124 3.190952
N 51.431581 -8.440480 3.801559
C 50.657724 -6.948563 2.011745
C 50.616671 -5.685612 1.413933
C 50.116561 -2.596337 1.237902
C 48.809229 -3.038972 1.719847
C 47.947567 -2.112387 1.347140
C 48.696025 -1.073558 0.641495
N 49.960885 -1.345017 0.571710
H 46.975239 0.122976 0.009685
H 47.007011 2.435484 -1.247080
H 48.822737 4.082296 -1.974869
H 52.497307 3.841570 -3.731242
H 52.607852 6.081117 -4.750966
H 52.162735 8.516495 -4.615196
H 51.392415 9.220453 -3.155277
H 50.759253 7.771262 -1.245624
H 50.651855 5.533514 -0.221739
H 54.253144 4.309589 -1.139257
H 56.070514 2.639068 -0.437781
H 55.723443 -2.730151 0.010560
H 53.763612 -4.478479 0.726879
H 52.581372 -3.988638 3.624421
H 52.652746 -6.214604 4.674633
H 51.974571 -8.599389 4.679496
H 50.920081 -9.247813 3.380310
H 50.122659 -7.771555 1.554904
H 50.055234 -5.549043 0.497768
H 48.567392 -3.937022 2.272811
H 46.883014 -2.128631 1.540531
Cu 83.973770 0.013616 0.014787
C 87.315363 -0.073474 0.128967
C 86.653095 -1.078332 0.709491
C 87.303643 -2.229474 1.323555
C 86.363428 -3.008714 1.824979
C 85.058505 -2.384706 1.565730
N 85.235659 -1.162824 0.847809
C 83.866383 -2.877952 1.961152
C 83.816660 -4.135428 2.741893
C 83.259720 -5.292350 2.176503
C 83.196462 -6.476921 2.916157
C 83.685469 -6.516284 4.229649
N 83.620559 -7.728320 4.985664
C 84.236518 -5.358947 4.797801
C 84.299433 -4.173606 4.059443
C 82.575195 -2.207432 1.655633
C 81.291739 -2.596042 2.253025
C 80.357226 -1.821797 1.740030
N 82.432533 -1.230434 0.813310
C 81.037340 -0.927999 0.810757
C 80.443142 -0.012707 0.028015
C 81.206725 0.869789 -0.881900
C 80.676204 1.525216 -1.906553
C 81.719100 2.359799 -2.471009
C 82.816734 2.162307 -1.749997
N 82.582888 1.209554 -0.711694
C 84.095347 2.890818 -1.952161
C 84.072527 4.163453 -2.713800
C 83.333575 5.255948 -2.234293
C 83.292599 6.451297 -2.957984
C 83.984782 6.566091 -4.171719
N 83.942384 7.789090 -4.911515
C 84.716242 5.472965 -4.656929
C 84.757294 4.276878 -3.934571
C 85.257405 2.423252 -1.456936
C 86.564736 3.069519 -1.559583
C 87.426398 2.246907 -0.993209
C 86.677941 1.084774 -0.517236
N 85.413081 1.176597 -0.782055
H 88.398726 -0.102953 0.130978
H 88.366954 -2.428182 1.364048
H 86.551228 -3.944697 2.334536
H 82.876658 -5.275620 1.163450
H 82.766114 -7.362963 2.466679
H 83.211230 -8.595409 4.571572
H 83.981550 -7.767528 5.964961
H 84.614712 -5.375125 5.812200
H 84.722111 -3.285306 4.512770
H 81.120821 -3.373804 2.985681
H 79.303451 -1.866120 1.980893
H 79.650523 1.474204 -2.246607
H 81.610354 3.037249 -3.308046
H 82.792594 5.181688 -1.298798
H 82.721220 7.286939 -2.573862
H 83.399395 8.608648 -4.558882
H 84.453885 7.884054 -5.817175
H 85.251306 5.546915 -5.595305
H 85.318732 3.437801 -4.326946
H 86.806573 4.026608 -2.002577
H 88.490952 2.417072 -0.899895
C 56.751995 -0.012707 0.028015
C 57.973913 -0.012707 0.028015
C 67.076024 -0.012707 0.028015
C 68.297942 -0.012707 0.028015
C 77.400053 -0.012707 0.028015
C 78.621970 -0.012707 0.028015
Cu 62.560445 -0.042735 0.051930
C 59.076259 0.013568 -0.029914
C 59.733119 1.123464 -0.413861
C 59.088394 2.355550 -0.873980
C 60.026418 3.251147 -1.108488
C 61.329266 2.643358 -0.818721
N 61.152848 1.293337 -0.381211
C 62.513302 3.285717 -0.905732
C 62.534680 4.705812 -1.319847
C 62.401008 5.049106 -2.673669
C 62.418034 6.391848 -3.062792
C 62.571623 7.403235 -2.103118
N 62.589550 8.776562 -2.501906
C 62.707276 7.059146 -0.750052
C 62.688172 5.716890 -0.359679
C 63.816791 2.641908 -0.601574
C 65.095705 3.363012 -0.567120
C 66.047193 2.486266 -0.321241
N 63.980234 1.371943 -0.393113
C 65.384481 1.193782 -0.205181
C 65.999572 0.013568 -0.029914
C 65.254214 -1.260859 0.065217
C 65.802715 -2.460491 -0.080128
C 64.770192 -3.440999 0.190054
C 63.660292 -2.774361 0.485242
N 63.874816 -1.364674 0.417275
C 62.395076 -3.410628 0.927381
C 62.448259 -4.798643 1.447144
C 61.803297 -5.841565 0.760941
C 61.869446 -7.150686 1.247228
C 62.585090 -7.432630 2.420482
N 62.649255 -8.771273 2.920100
C 63.238329 -6.393593 3.100734
C 63.174038 -5.084471 2.614123
C 61.219128 -2.755046 0.884688
C 59.936533 -3.268894 1.354311
C 59.048266 -2.333071 1.090850
C 59.751702 -1.212696 0.456123
N 61.021452 -1.451478 0.335578
H 58.029032 2.537361 -0.997860
H 59.837021 4.261796 -1.447877
H 62.281872 4.276806 -3.424192
H 62.312084 6.644008 -4.110605
H 62.490443 9.042588 -3.507000
H 62.707047 9.536773 -1.794944
H 62.827750 7.830619 0.000478
H 62.793665 5.463895 0.688515
H 65.254681 4.422132 -0.720527
H 67.102256 2.711074 -0.240724
H 66.834027 -2.676604 -0.323863
H 64.895911 -4.516162 0.188440
H 61.252127 -5.639327 -0.149876
H 61.364840 -7.944967 0.709592
H 63.179166 -8.991395 3.793279
H 62.163898 -9.551736 2.423234
H 63.796855 -6.598150 4.006803
H 63.684661 -4.292079 3.149284
H 59.728914 -4.216471 1.834206
H 57.993826 -2.400118 1.322152
Cu 72.884473 -0.042735 0.051930
C 69.400288 0.013568 -0.029914
C 70.057148 1.123464 -0.413861
C 69.412423 2.355550 -0.873980
C 70.350446 3.251147 -1.108488
C 71.653295 2.643358 -0.818721
N 71.476877 1.293337 -0.381211
C 72.837330 3.285717 -0.905732
C 72.858709 4.705812 -1.319847
C 72.725037 5.049106 -2.673669
C 72.742063 6.391848 -3.062792
C 72.895652 7.403235 -2.103118
N 72.913578 8.776562 -2.501906
C 73.031305 7.059146 -0.750052
C 73.012200 5.716890 -0.359679
C 74.140820 2.641908 -0.601574
C 75.419734 3.363012 -0.567120
C 76.371221 2.486266 -0.321241
N 74.304262 1.371943 -0.393113
C 75.708510 1.193782 -0.205181
C 76.323601 0.013568 -0.029914
C 75.578242 -1.260859 0.065217
C 76.126744 -2.460491 -0.080128
C 75.094221 -3.440999 0.190054
C 73.984320 -2.774361 0.485242
N 74.198845 -1.364674 0.417275
C 72.719104 -3.410628 0.927381
C 72.772288 -4.798643 1.447144
C 72.127326 -5.841565 0.760941
C 72.193474 -7.150686 1.247228
C 72.909119 -7.432630 2.420482
N 72.973283 -8.771273 2.920100
C 73.562358 -6.393593 3.100734
C 73.498066 -5.084471 2.614123
C 71.543157 -2.755046 0.884688
C 70.260562 -3.268894 1.354311
C 69.372295 -2.333071 1.090850
C 70.075731 -1.212696 0.456123
N 71.345481 -1.451478 0.335578
H 68.353060 2.537361 -0.997860
H 70.161049 4.261796 -1.447877
H 72.605900 4.276806 -3.424192
H 72.636113 6.644008 -4.110605
H 72.814472 9.042588 -3.507000
H 73.031075 9.536773 -1.794944
H 73.151778 7.830619 0.000478
H 73.117694 5.463895 0.688515
H 75.578710 4.422132 -0.720527
H 77.426284 2.711074 -0.240724
H 77.158056 -2.676604 -0.323863
H 75.219939 -4.516162 0.188440
H 71.576156 -5.639327 -0.149876
H 71.688869 -7.944967 0.709592
H 73.503195 -8.991395 3.793279
H 72.487927 -9.551736 2.423234
H 74.120884 -6.598150 4.006803
H 74.008690 -4.292079 3.149284
H 70.052942 -4.216471 1.834206
H 68.317855 -2.400118 1.322152
