 xtb: 6.5.1 (b24c23e)
          07302207263D

244283  0     0  0            999 V2000
   51.3033   -0.0036    0.0556 Cu  0  0  0  0  0  0  0  0  0  0  0  0
   47.8954   -0.0063    0.0800 C   0  0  0  0  0  0  0  0  0  0  0  0
   48.5161    1.1282   -0.4216 C   0  0  0  0  0  0  0  0  0  0  0  0
   47.8302    2.2504   -0.9943 C   0  0  0  0  0  0  0  0  0  0  0  0
   48.7787    3.1514   -1.3533 C   0  0  0  0  0  0  0  0  0  0  0  0
   50.0519    2.5950   -0.9850 C   0  0  0  0  0  0  0  0  0  0  0  0
   49.8621    1.3606   -0.4340 N   0  0  0  0  0  0  0  0  0  0  0  0
   51.2878    3.2259   -1.1548 C   0  0  0  0  0  0  0  0  0  0  0  0
   51.2882    4.6078   -1.6889 C   0  0  0  0  0  0  0  0  0  0  0  0
   51.9777    4.9137   -2.8653 C   0  0  0  0  0  0  0  0  0  0  0  0
   51.9758    6.1994   -3.3761 C   0  0  0  0  0  0  0  0  0  0  0  0
   51.2930    7.2184   -2.7071 C   0  0  0  0  0  0  0  0  0  0  0  0
   51.2555    8.4975   -3.2358 N   0  0  0  0  0  0  0  0  0  0  0  0
   50.5995    6.9213   -1.5311 C   0  0  0  0  0  0  0  0  0  0  0  0
   50.5982    5.6305   -1.0329 C   0  0  0  0  0  0  0  0  0  0  0  0
   52.5253    2.6483   -0.8566 C   0  0  0  0  0  0  0  0  0  0  0  0
   53.7818    3.3380   -0.9071 C   0  0  0  0  0  0  0  0  0  0  0  0
   54.7411    2.4418   -0.5610 C   0  0  0  0  0  0  0  0  0  0  0  0
   52.7388    1.3525   -0.4659 N   0  0  0  0  0  0  0  0  0  0  0  0
   54.0820    1.1996   -0.2987 C   0  0  0  0  0  0  0  0  0  0  0  0
   54.7412    0.0025    0.0392 C   0  0  0  0  0  0  0  0  0  0  0  0
   54.0899   -1.1975    0.3822 C   0  0  0  0  0  0  0  0  0  0  0  0
   54.7564   -2.4378    0.6355 C   0  0  0  0  0  0  0  0  0  0  0  0
   53.8033   -3.3389    0.9862 C   0  0  0  0  0  0  0  0  0  0  0  0
   52.5437   -2.6538    0.9491 C   0  0  0  0  0  0  0  0  0  0  0  0
   52.7489   -1.3560    0.5606 N   0  0  0  0  0  0  0  0  0  0  0  0
   51.3109   -3.2358    1.2583 C   0  0  0  0  0  0  0  0  0  0  0  0
   51.3195   -4.6200    1.7861 C   0  0  0  0  0  0  0  0  0  0  0  0
   52.0241   -4.9309    2.9522 C   0  0  0  0  0  0  0  0  0  0  0  0
   52.0284   -6.2186    3.4579 C   0  0  0  0  0  0  0  0  0  0  0  0
   51.3362   -7.2347    2.7940 C   0  0  0  0  0  0  0  0  0  0  0  0
   51.3047   -8.5155    3.3185 N   0  0  0  0  0  0  0  0  0  0  0  0
   50.6276   -6.9327    1.6283 C   0  0  0  0  0  0  0  0  0  0  0  0
   50.6205   -5.6399    1.1352 C   0  0  0  0  0  0  0  0  0  0  0  0
   50.0717   -2.6066    1.1071 C   0  0  0  0  0  0  0  0  0  0  0  0
   48.8049   -3.1657    1.4931 C   0  0  0  0  0  0  0  0  0  0  0  0
   47.8499   -2.2647    1.1516 C   0  0  0  0  0  0  0  0  0  0  0  0
   48.5254   -1.1404    0.5710 C   0  0  0  0  0  0  0  0  0  0  0  0
   49.8718   -1.3711    0.5622 N   0  0  0  0  0  0  0  0  0  0  0  0
   46.8102   -0.0070    0.0886 H   0  0  0  0  0  0  0  0  0  0  0  0
   46.7605    2.3206   -1.1148 H   0  0  0  0  0  0  0  0  0  0  0  0
   48.6353    4.1039   -1.8379 H   0  0  0  0  0  0  0  0  0  0  0  0
   52.5027    4.1265   -3.3954 H   0  0  0  0  0  0  0  0  0  0  0  0
   52.5046    6.4211   -4.2968 H   0  0  0  0  0  0  0  0  0  0  0  0
   52.0144    8.7228   -3.8590 H   0  0  0  0  0  0  0  0  0  0  0  0
   51.0440    9.2258   -2.5725 H   0  0  0  0  0  0  0  0  0  0  0  0
   50.0658    7.7078   -1.0086 H   0  0  0  0  0  0  0  0  0  0  0  0
   50.0736    5.4129   -0.1090 H   0  0  0  0  0  0  0  0  0  0  0  0
   53.9092    4.3804   -1.1507 H   0  0  0  0  0  0  0  0  0  0  0  0
   55.8017    2.6077   -0.4732 H   0  0  0  0  0  0  0  0  0  0  0  0
   55.8173   -2.5987    0.5389 H   0  0  0  0  0  0  0  0  0  0  0  0
   53.9368   -4.3816    1.2252 H   0  0  0  0  0  0  0  0  0  0  0  0
   52.5560   -4.1459    3.4787 H   0  0  0  0  0  0  0  0  0  0  0  0
   52.5689   -6.4441    4.3707 H   0  0  0  0  0  0  0  0  0  0  0  0
   52.0696   -8.7425    3.9335 H   0  0  0  0  0  0  0  0  0  0  0  0
   51.0859   -9.2419    2.6556 H   0  0  0  0  0  0  0  0  0  0  0  0
   50.0865   -7.7167    1.1098 H   0  0  0  0  0  0  0  0  0  0  0  0
   50.0837   -5.4184    0.2192 H   0  0  0  0  0  0  0  0  0  0  0  0
   48.6700   -4.1195    1.9774 H   0  0  0  0  0  0  0  0  0  0  0  0
   46.7823   -2.3366    1.2889 H   0  0  0  0  0  0  0  0  0  0  0  0
   84.0597   -0.0581    0.0829 Cu  0  0  0  0  0  0  0  0  0  0  0  0
   87.4665   -0.0745    0.0805 C   0  0  0  0  0  0  0  0  0  0  0  0
   86.8372   -1.1314    0.7215 C   0  0  0  0  0  0  0  0  0  0  0  0
   87.5157   -2.2483    1.3130 C   0  0  0  0  0  0  0  0  0  0  0  0
   86.5613   -3.0573    1.8372 C   0  0  0  0  0  0  0  0  0  0  0  0
   85.2913   -2.4329    1.5846 C   0  0  0  0  0  0  0  0  0  0  0  0
   85.4897   -1.2703    0.8970 N   0  0  0  0  0  0  0  0  0  0  0  0
   84.0512   -2.9426    1.9802 C   0  0  0  0  0  0  0  0  0  0  0  0
   84.0448   -4.1806    2.7949 C   0  0  0  0  0  0  0  0  0  0  0  0
   83.3773   -5.3241    2.3486 C   0  0  0  0  0  0  0  0  0  0  0  0
   83.3699   -6.4828    3.1047 C   0  0  0  0  0  0  0  0  0  0  0  0
   84.0211   -6.5177    4.3404 C   0  0  0  0  0  0  0  0  0  0  0  0
   84.0472   -7.6860    5.0831 N   0  0  0  0  0  0  0  0  0  0  0  0
   84.6953   -5.3804    4.7920 C   0  0  0  0  0  0  0  0  0  0  0  0
   84.7059   -4.2291    4.0248 C   0  0  0  0  0  0  0  0  0  0  0  0
   82.8161   -2.3682    1.6672 C   0  0  0  0  0  0  0  0  0  0  0  0
   81.5496   -2.8304    2.1585 C   0  0  0  0  0  0  0  0  0  0  0  0
   80.5976   -2.0165    1.6343 C   0  0  0  0  0  0  0  0  0  0  0  0
   82.6158   -1.2754    0.8655 N   0  0  0  0  0  0  0  0  0  0  0  0
   81.2735   -1.0504    0.8230 C   0  0  0  0  0  0  0  0  0  0  0  0
   80.6287   -0.0375    0.0910 C   0  0  0  0  0  0  0  0  0  0  0  0
   81.2828    0.9650   -0.6473 C   0  0  0  0  0  0  0  0  0  0  0  0
   80.6152    1.9337   -1.4623 C   0  0  0  0  0  0  0  0  0  0  0  0
   81.5742    2.7336   -1.9949 C   0  0  0  0  0  0  0  0  0  0  0  0
   82.8369    2.2603   -1.5048 C   0  0  0  0  0  0  0  0  0  0  0  0
   82.6273    1.1742   -0.6964 N   0  0  0  0  0  0  0  0  0  0  0  0
   84.0769    2.8207   -1.8236 C   0  0  0  0  0  0  0  0  0  0  0  0
   84.0814    4.0555   -2.6429 C   0  0  0  0  0  0  0  0  0  0  0  0
   83.4256    5.2070   -2.1998 C   0  0  0  0  0  0  0  0  0  0  0  0
   83.4300    6.3635   -2.9591 C   0  0  0  0  0  0  0  0  0  0  0  0
   84.0817    6.3884   -4.1948 C   0  0  0  0  0  0  0  0  0  0  0  0
   84.1211    7.5548   -4.9401 N   0  0  0  0  0  0  0  0  0  0  0  0
   84.7434    5.2427   -4.6438 C   0  0  0  0  0  0  0  0  0  0  0  0
   84.7422    4.0935   -3.8734 C   0  0  0  0  0  0  0  0  0  0  0  0
   85.3126    2.3005   -1.4276 C   0  0  0  0  0  0  0  0  0  0  0  0
   86.5880    2.9125   -1.6829 C   0  0  0  0  0  0  0  0  0  0  0  0
   87.5352    2.0966   -1.1562 C   0  0  0  0  0  0  0  0  0  0  0  0
   86.8468    0.9875   -0.5614 C   0  0  0  0  0  0  0  0  0  0  0  0
   85.5005    1.1383   -0.7366 N   0  0  0  0  0  0  0  0  0  0  0  0
   88.5518   -0.0794    0.0805 H   0  0  0  0  0  0  0  0  0  0  0  0
   88.5850   -2.3907    1.3077 H   0  0  0  0  0  0  0  0  0  0  0  0
   86.6985   -4.0022    2.3381 H   0  0  0  0  0  0  0  0  0  0  0  0
   82.8767   -5.3079    1.3866 H   0  0  0  0  0  0  0  0  0  0  0  0
   82.8576   -7.3672    2.7419 H   0  0  0  0  0  0  0  0  0  0  0  0
   83.2970   -8.3300    4.8891 H   0  0  0  0  0  0  0  0  0  0  0  0
   84.2315   -7.5608    6.0657 H   0  0  0  0  0  0  0  0  0  0  0  0
   85.2061   -5.4027    5.7486 H   0  0  0  0  0  0  0  0  0  0  0  0
   85.2151   -3.3446    4.3919 H   0  0  0  0  0  0  0  0  0  0  0  0
   81.4104   -3.6572    2.8361 H   0  0  0  0  0  0  0  0  0  0  0  0
   79.5318   -2.0526    1.7922 H   0  0  0  0  0  0  0  0  0  0  0  0
   79.5497    1.9799   -1.6182 H   0  0  0  0  0  0  0  0  0  0  0  0
   81.4419    3.5572   -2.6777 H   0  0  0  0  0  0  0  0  0  0  0  0
   82.9249    5.1985   -1.2377 H   0  0  0  0  0  0  0  0  0  0  0  0
   82.9270    7.2543   -2.5987 H   0  0  0  0  0  0  0  0  0  0  0  0
   83.3786    8.2078   -4.7465 H   0  0  0  0  0  0  0  0  0  0  0  0
   84.3018    7.4249   -5.9227 H   0  0  0  0  0  0  0  0  0  0  0  0
   85.2539    5.2571   -5.6006 H   0  0  0  0  0  0  0  0  0  0  0  0
   85.2418    3.2026   -4.2383 H   0  0  0  0  0  0  0  0  0  0  0  0
   86.7334    3.8545   -2.1870 H   0  0  0  0  0  0  0  0  0  0  0  0
   88.6057    2.2295   -1.1518 H   0  0  0  0  0  0  0  0  0  0  0  0
   56.1510    0.0044    0.0316 C   0  0  0  0  0  0  0  0  0  0  0  0
   57.3694    0.0042    0.0247 C   0  0  0  0  0  0  0  0  0  0  0  0
   67.0793    0.0305    0.0398 C   0  0  0  0  0  0  0  0  0  0  0  0
   68.2977    0.0293    0.0429 C   0  0  0  0  0  0  0  0  0  0  0  0
   78.0020   -0.0159    0.0969 C   0  0  0  0  0  0  0  0  0  0  0  0
   79.2191   -0.0270    0.0953 C   0  0  0  0  0  0  0  0  0  0  0  0
   62.2251    0.0099    0.0174 Cu  0  0  0  0  0  0  0  0  0  0  0  0
   58.7788    0.0028    0.0109 C   0  0  0  0  0  0  0  0  0  0  0  0
   59.4323    1.1530   -0.4706 C   0  0  0  0  0  0  0  0  0  0  0  0
   58.7645    2.3104   -0.9815 C   0  0  0  0  0  0  0  0  0  0  0  0
   59.7203    3.2340   -1.2577 C   0  0  0  0  0  0  0  0  0  0  0  0
   60.9841    2.6397   -0.9318 C   0  0  0  0  0  0  0  0  0  0  0  0
   60.7765    1.3696   -0.4613 N   0  0  0  0  0  0  0  0  0  0  0  0
   62.2170    3.2909   -1.0099 C   0  0  0  0  0  0  0  0  0  0  0  0
   62.2141    4.7072   -1.4573 C   0  0  0  0  0  0  0  0  0  0  0  0
   61.8166    5.0427   -2.7529 C   0  0  0  0  0  0  0  0  0  0  0  0
   61.8181    6.3605   -3.1762 C   0  0  0  0  0  0  0  0  0  0  0  0
   62.2072    7.3771   -2.3008 C   0  0  0  0  0  0  0  0  0  0  0  0
   62.2501    8.6927   -2.7329 N   0  0  0  0  0  0  0  0  0  0  0  0
   62.6097    7.0487   -1.0041 C   0  0  0  0  0  0  0  0  0  0  0  0
   62.6123    5.7276   -0.5915 C   0  0  0  0  0  0  0  0  0  0  0  0
   63.4526    2.7185   -0.7001 C   0  0  0  0  0  0  0  0  0  0  0  0
   64.7129    3.3996   -0.7676 C   0  0  0  0  0  0  0  0  0  0  0  0
   65.6724    2.4901   -0.4600 C   0  0  0  0  0  0  0  0  0  0  0  0
   63.6661    1.4089   -0.3587 N   0  0  0  0  0  0  0  0  0  0  0  0
   65.0106    1.2444   -0.2208 C   0  0  0  0  0  0  0  0  0  0  0  0
   65.6701    0.0290    0.0417 C   0  0  0  0  0  0  0  0  0  0  0  0
   65.0166   -1.1935    0.2890 C   0  0  0  0  0  0  0  0  0  0  0  0
   65.6798   -2.4519    0.4382 C   0  0  0  0  0  0  0  0  0  0  0  0
   64.7231   -3.3772    0.7087 C   0  0  0  0  0  0  0  0  0  0  0  0
   63.4667   -2.6870    0.7311 C   0  0  0  0  0  0  0  0  0  0  0  0
   63.6749   -1.3627    0.4481 N   0  0  0  0  0  0  0  0  0  0  0  0
   62.2327   -3.2772    1.0174 C   0  0  0  0  0  0  0  0  0  0  0  0
   62.2348   -4.6965    1.4405 C   0  0  0  0  0  0  0  0  0  0  0  0
   61.5026   -5.6524    0.7310 C   0  0  0  0  0  0  0  0  0  0  0  0
   61.5068   -6.9808    1.1172 C   0  0  0  0  0  0  0  0  0  0  0  0
   62.2351   -7.3821    2.2400 C   0  0  0  0  0  0  0  0  0  0  0  0
   62.2734   -8.7164    2.6069 N   0  0  0  0  0  0  0  0  0  0  0  0
   62.9718   -6.4336    2.9542 C   0  0  0  0  0  0  0  0  0  0  0  0
   62.9709   -5.1092    2.5545 C   0  0  0  0  0  0  0  0  0  0  0  0
   60.9963   -2.6306    0.9348 C   0  0  0  0  0  0  0  0  0  0  0  0
   59.7446   -3.1956    1.3462 C   0  0  0  0  0  0  0  0  0  0  0  0
   58.7839   -2.2765    1.0687 C   0  0  0  0  0  0  0  0  0  0  0  0
   59.4392   -1.1457    0.4881 C   0  0  0  0  0  0  0  0  0  0  0  0
   60.7812   -1.3721    0.4382 N   0  0  0  0  0  0  0  0  0  0  0  0
   57.6990    2.4004   -1.1114 H   0  0  0  0  0  0  0  0  0  0  0  0
   59.5821    4.2321   -1.6407 H   0  0  0  0  0  0  0  0  0  0  0  0
   61.5212    4.2579   -3.4408 H   0  0  0  0  0  0  0  0  0  0  0  0
   61.5169    6.6081   -4.1883 H   0  0  0  0  0  0  0  0  0  0  0  0
   61.6506    8.9019   -3.5152 H   0  0  0  0  0  0  0  0  0  0  0  0
   62.2125    9.3810   -1.9980 H   0  0  0  0  0  0  0  0  0  0  0  0
   62.9167    7.8334   -0.3212 H   0  0  0  0  0  0  0  0  0  0  0  0
   62.9103    5.4818    0.4219 H   0  0  0  0  0  0  0  0  0  0  0  0
   64.8465    4.4378   -1.0249 H   0  0  0  0  0  0  0  0  0  0  0  0
   66.7367    2.6443   -0.3996 H   0  0  0  0  0  0  0  0  0  0  0  0
   66.7404   -2.6072    0.3291 H   0  0  0  0  0  0  0  0  0  0  0  0
   64.8534   -4.4370    0.8569 H   0  0  0  0  0  0  0  0  0  0  0  0
   60.9426   -5.3507   -0.1474 H   0  0  0  0  0  0  0  0  0  0  0  0
   60.9449   -7.7151    0.5503 H   0  0  0  0  0  0  0  0  0  0  0  0
   62.5250   -8.8866    3.5675 H   0  0  0  0  0  0  0  0  0  0  0  0
   61.4945   -9.2689    2.2859 H   0  0  0  0  0  0  0  0  0  0  0  0
   63.5411   -6.7398    3.8251 H   0  0  0  0  0  0  0  0  0  0  0  0
   63.5305   -4.3762    3.1251 H   0  0  0  0  0  0  0  0  0  0  0  0
   59.6203   -4.1608    1.8100 H   0  0  0  0  0  0  0  0  0  0  0  0
   57.7251   -2.3476    1.2550 H   0  0  0  0  0  0  0  0  0  0  0  0
   73.1526    0.0015    0.0579 Cu  0  0  0  0  0  0  0  0  0  0  0  0
   69.7070    0.0206    0.0387 C   0  0  0  0  0  0  0  0  0  0  0  0
   70.3693    1.1713   -0.4288 C   0  0  0  0  0  0  0  0  0  0  0  0
   69.7076    2.3425   -0.9162 C   0  0  0  0  0  0  0  0  0  0  0  0
   70.6709    3.2525   -1.2101 C   0  0  0  0  0  0  0  0  0  0  0  0
   71.9328    2.6360   -0.9192 C   0  0  0  0  0  0  0  0  0  0  0  0
   71.7162    1.3685   -0.4457 N   0  0  0  0  0  0  0  0  0  0  0  0
   73.1744    3.2626   -1.0471 C   0  0  0  0  0  0  0  0  0  0  0  0
   73.1840    4.6690   -1.5232 C   0  0  0  0  0  0  0  0  0  0  0  0
   72.7293    4.9918   -2.8033 C   0  0  0  0  0  0  0  0  0  0  0  0
   72.7420    6.3013   -3.2512 C   0  0  0  0  0  0  0  0  0  0  0  0
   73.2115    7.3216   -2.4206 C   0  0  0  0  0  0  0  0  0  0  0  0
   73.1815    8.6394   -2.8473 N   0  0  0  0  0  0  0  0  0  0  0  0
   73.6561    7.0083   -1.1339 C   0  0  0  0  0  0  0  0  0  0  0  0
   73.6472    5.6951   -0.6970 C   0  0  0  0  0  0  0  0  0  0  0  0
   74.4085    2.6743   -0.7609 C   0  0  0  0  0  0  0  0  0  0  0  0
   75.6799    3.3238   -0.9012 C   0  0  0  0  0  0  0  0  0  0  0  0
   76.6307    2.4125   -0.5717 C   0  0  0  0  0  0  0  0  0  0  0  0
   74.6059    1.3795   -0.3602 N   0  0  0  0  0  0  0  0  0  0  0  0
   75.9498    1.1969   -0.2442 C   0  0  0  0  0  0  0  0  0  0  0  0
   76.5928   -0.0059    0.0984 C   0  0  0  0  0  0  0  0  0  0  0  0
   75.9346   -1.2064    0.4214 C   0  0  0  0  0  0  0  0  0  0  0  0
   76.5980   -2.4506    0.6658 C   0  0  0  0  0  0  0  0  0  0  0  0
   75.6342   -3.3667    0.9413 C   0  0  0  0  0  0  0  0  0  0  0  0
   74.3744   -2.6840    0.8765 C   0  0  0  0  0  0  0  0  0  0  0  0
   74.5890   -1.3730    0.5421 N   0  0  0  0  0  0  0  0  0  0  0  0
   73.1304   -3.2716    1.1205 C   0  0  0  0  0  0  0  0  0  0  0  0
   73.1145   -4.6904    1.5480 C   0  0  0  0  0  0  0  0  0  0  0  0
   72.4309   -5.6481    0.7942 C   0  0  0  0  0  0  0  0  0  0  0  0
   72.4216   -6.9780    1.1753 C   0  0  0  0  0  0  0  0  0  0  0  0
   73.0970   -7.3805    2.3302 C   0  0  0  0  0  0  0  0  0  0  0  0
   73.0520   -8.7026    2.7400 N   0  0  0  0  0  0  0  0  0  0  0  0
   73.7684   -6.4268    3.0993 C   0  0  0  0  0  0  0  0  0  0  0  0
   73.7814   -5.1005    2.7051 C   0  0  0  0  0  0  0  0  0  0  0  0
   71.8972   -2.6278    0.9863 C   0  0  0  0  0  0  0  0  0  0  0  0
   70.6335   -3.1963    1.3550 C   0  0  0  0  0  0  0  0  0  0  0  0
   69.6817   -2.2741    1.0592 C   0  0  0  0  0  0  0  0  0  0  0  0
   70.3545   -1.1383    0.5077 C   0  0  0  0  0  0  0  0  0  0  0  0
   71.6968   -1.3663    0.4913 N   0  0  0  0  0  0  0  0  0  0  0  0
   68.6408    2.4505   -1.0183 H   0  0  0  0  0  0  0  0  0  0  0  0
   70.5390    4.2554   -1.5822 H   0  0  0  0  0  0  0  0  0  0  0  0
   72.3795    4.2030   -3.4603 H   0  0  0  0  0  0  0  0  0  0  0  0
   72.3911    6.5392   -4.2495 H   0  0  0  0  0  0  0  0  0  0  0  0
   73.1755    8.7602   -3.8476 H   0  0  0  0  0  0  0  0  0  0  0  0
   73.8216    9.2536   -2.3692 H   0  0  0  0  0  0  0  0  0  0  0  0
   74.0090    7.7979   -0.4796 H   0  0  0  0  0  0  0  0  0  0  0  0
   73.9862    5.4605    0.3061 H   0  0  0  0  0  0  0  0  0  0  0  0
   75.8260    4.3432   -1.2198 H   0  0  0  0  0  0  0  0  0  0  0  0
   77.7001    2.5460   -0.5512 H   0  0  0  0  0  0  0  0  0  0  0  0
   77.6640   -2.6025    0.6140 H   0  0  0  0  0  0  0  0  0  0  0  0
   75.7630   -4.4164    1.1504 H   0  0  0  0  0  0  0  0  0  0  0  0
   71.9196   -5.3462   -0.1133 H   0  0  0  0  0  0  0  0  0  0  0  0
   71.8944   -7.7129    0.5768 H   0  0  0  0  0  0  0  0  0  0  0  0
   73.8025   -8.9833    3.3508 H   0  0  0  0  0  0  0  0  0  0  0  0
   72.8545   -9.3667    2.0084 H   0  0  0  0  0  0  0  0  0  0  0  0
   74.2805   -6.7310    4.0057 H   0  0  0  0  0  0  0  0  0  0  0  0
   74.2974   -4.3650    3.3127 H   0  0  0  0  0  0  0  0  0  0  0  0
   70.4959   -4.1660    1.8055 H   0  0  0  0  0  0  0  0  0  0  0  0
   68.6180   -2.3457    1.2147 H   0  0  0  0  0  0  0  0  0  0  0  0
  2  3  4  0  0  0  0
  3  4  4  0  0  0  0
  4  5  2  0  0  0  0
  5  6  4  0  0  0  0
  1  7  1  0  0  0  0
  3  7  4  0  0  0  0
  6  7  4  0  0  0  0
  6  8  4  0  0  0  0
  8  9  1  0  0  0  0
  9 10  4  0  0  0  0
 10 11  4  0  0  0  0
 11 12  4  0  0  0  0
 12 13  1  0  0  0  0
 12 14  4  0  0  0  0
  9 15  4  0  0  0  0
 14 15  4  0  0  0  0
  8 16  4  0  0  0  0
 16 17  4  0  0  0  0
 17 18  2  0  0  0  0
  1 19  1  0  0  0  0
 16 19  4  0  0  0  0
 18 20  4  0  0  0  0
 19 20  4  0  0  0  0
 20 21  4  0  0  0  0
 21 22  4  0  0  0  0
 22 23  4  0  0  0  0
 23 24  2  0  0  0  0
 24 25  4  0  0  0  0
  1 26  1  0  0  0  0
 22 26  4  0  0  0  0
 25 26  4  0  0  0  0
 25 27  4  0  0  0  0
 27 28  1  0  0  0  0
 28 29  4  0  0  0  0
 29 30  4  0  0  0  0
 30 31  4  0  0  0  0
 31 32  1  0  0  0  0
 31 33  4  0  0  0  0
 28 34  4  0  0  0  0
 33 34  4  0  0  0  0
 27 35  4  0  0  0  0
 35 36  4  0  0  0  0
 36 37  2  0  0  0  0
  2 38  4  0  0  0  0
 37 38  4  0  0  0  0
  1 39  1  0  0  0  0
 35 39  4  0  0  0  0
 38 39  4  0  0  0  0
  2 40  1  0  0  0  0
  4 41  1  0  0  0  0
  5 42  1  0  0  0  0
 10 43  1  0  0  0  0
 11 44  1  0  0  0  0
 13 45  1  0  0  0  0
 13 46  1  0  0  0  0
 14 47  1  0  0  0  0
 15 48  1  0  0  0  0
 17 49  1  0  0  0  0
 18 50  1  0  0  0  0
 23 51  1  0  0  0  0
 24 52  1  0  0  0  0
 29 53  1  0  0  0  0
 30 54  1  0  0  0  0
 32 55  1  0  0  0  0
 32 56  1  0  0  0  0
 33 57  1  0  0  0  0
 34 58  1  0  0  0  0
 36 59  1  0  0  0  0
 37 60  1  0  0  0  0
 62 63  4  0  0  0  0
 63 64  1  0  0  0  0
 64 65  2  0  0  0  0
 65 66  4  0  0  0  0
 61 67  1  0  0  0  0
 63 67  4  0  0  0  0
 66 67  4  0  0  0  0
 66 68  4  0  0  0  0
 68 69  1  0  0  0  0
 69 70  4  0  0  0  0
 70 71  4  0  0  0  0
 71 72  4  0  0  0  0
 72 73  1  0  0  0  0
 72 74  4  0  0  0  0
 69 75  4  0  0  0  0
 74 75  4  0  0  0  0
 68 76  4  0  0  0  0
 76 77  4  0  0  0  0
 77 78  2  0  0  0  0
 61 79  1  0  0  0  0
 76 79  4  0  0  0  0
 78 80  4  0  0  0  0
 79 80  4  0  0  0  0
 80 81  4  0  0  0  0
 81 82  4  0  0  0  0
 82 83  4  0  0  0  0
 83 84  2  0  0  0  0
 84 85  4  0  0  0  0
 61 86  1  0  0  0  0
 82 86  4  0  0  0  0
 85 86  4  0  0  0  0
 85 87  4  0  0  0  0
 87 88  1  0  0  0  0
 88 89  4  0  0  0  0
 89 90  4  0  0  0  0
 90 91  4  0  0  0  0
 91 92  1  0  0  0  0
 91 93  4  0  0  0  0
 88 94  4  0  0  0  0
 93 94  4  0  0  0  0
 87 95  4  0  0  0  0
 95 96  4  0  0  0  0
 96 97  2  0  0  0  0
 62 98  4  0  0  0  0
 97 98  1  0  0  0  0
 61 99  1  0  0  0  0
 95 99  4  0  0  0  0
 98 99  4  0  0  0  0
 62100  1  0  0  0  0
 64101  1  0  0  0  0
 65102  1  0  0  0  0
 70103  1  0  0  0  0
 71104  1  0  0  0  0
 73105  1  0  0  0  0
 73106  1  0  0  0  0
 74107  1  0  0  0  0
 75108  1  0  0  0  0
 77109  1  0  0  0  0
 78110  1  0  0  0  0
 83111  1  0  0  0  0
 84112  1  0  0  0  0
 89113  1  0  0  0  0
 90114  1  0  0  0  0
 92115  1  0  0  0  0
 92116  1  0  0  0  0
 93117  1  0  0  0  0
 94118  1  0  0  0  0
 96119  1  0  0  0  0
 97120  1  0  0  0  0
 21121  4  0  0  0  0
121122  3  0  0  0  0
123124  3  0  0  0  0
 81126  4  0  0  0  0
125126  3  0  0  0  0
122128  4  0  0  0  0
128129  4  0  0  0  0
129130  4  0  0  0  0
130131  2  0  0  0  0
131132  4  0  0  0  0
127133  1  0  0  0  0
129133  4  0  0  0  0
132133  4  0  0  0  0
132134  4  0  0  0  0
134135  1  0  0  0  0
135136  4  0  0  0  0
136137  4  0  0  0  0
137138  4  0  0  0  0
138139  1  0  0  0  0
138140  4  0  0  0  0
135141  4  0  0  0  0
140141  4  0  0  0  0
134142  4  0  0  0  0
142143  4  0  0  0  0
143144  2  0  0  0  0
127145  1  0  0  0  0
142145  4  0  0  0  0
144146  4  0  0  0  0
145146  4  0  0  0  0
123147  4  0  0  0  0
146147  4  0  0  0  0
147148  4  0  0  0  0
148149  4  0  0  0  0
149150  2  0  0  0  0
150151  4  0  0  0  0
127152  1  0  0  0  0
148152  4  0  0  0  0
151152  4  0  0  0  0
151153  4  0  0  0  0
153154  1  0  0  0  0
154155  4  0  0  0  0
155156  4  0  0  0  0
156157  4  0  0  0  0
157158  1  0  0  0  0
157159  4  0  0  0  0
154160  4  0  0  0  0
159160  4  0  0  0  0
153161  4  0  0  0  0
161162  4  0  0  0  0
162163  2  0  0  0  0
128164  4  0  0  0  0
163164  4  0  0  0  0
127165  1  0  0  0  0
161165  4  0  0  0  0
164165  4  0  0  0  0
130166  1  0  0  0  0
131167  1  0  0  0  0
136168  1  0  0  0  0
137169  1  0  0  0  0
139170  1  0  0  0  0
139171  1  0  0  0  0
140172  1  0  0  0  0
141173  1  0  0  0  0
143174  1  0  0  0  0
144175  1  0  0  0  0
149176  1  0  0  0  0
150177  1  0  0  0  0
155178  1  0  0  0  0
156179  1  0  0  0  0
158180  1  0  0  0  0
158181  1  0  0  0  0
159182  1  0  0  0  0
160183  1  0  0  0  0
162184  1  0  0  0  0
163185  1  0  0  0  0
124187  4  0  0  0  0
187188  4  0  0  0  0
188189  4  0  0  0  0
189190  2  0  0  0  0
190191  4  0  0  0  0
186192  1  0  0  0  0
188192  4  0  0  0  0
191192  4  0  0  0  0
191193  4  0  0  0  0
193194  1  0  0  0  0
194195  4  0  0  0  0
195196  4  0  0  0  0
196197  4  0  0  0  0
197198  1  0  0  0  0
197199  4  0  0  0  0
194200  4  0  0  0  0
199200  4  0  0  0  0
193201  4  0  0  0  0
201202  4  0  0  0  0
202203  2  0  0  0  0
186204  1  0  0  0  0
201204  4  0  0  0  0
203205  4  0  0  0  0
204205  4  0  0  0  0
125206  4  0  0  0  0
205206  4  0  0  0  0
206207  4  0  0  0  0
207208  4  0  0  0  0
208209  2  0  0  0  0
209210  4  0  0  0  0
186211  1  0  0  0  0
207211  4  0  0  0  0
210211  4  0  0  0  0
210212  4  0  0  0  0
212213  1  0  0  0  0
213214  4  0  0  0  0
214215  4  0  0  0  0
215216  4  0  0  0  0
216217  1  0  0  0  0
216218  4  0  0  0  0
213219  4  0  0  0  0
218219  4  0  0  0  0
212220  4  0  0  0  0
220221  4  0  0  0  0
221222  2  0  0  0  0
187223  4  0  0  0  0
222223  4  0  0  0  0
186224  1  0  0  0  0
220224  4  0  0  0  0
223224  4  0  0  0  0
189225  1  0  0  0  0
190226  1  0  0  0  0
195227  1  0  0  0  0
196228  1  0  0  0  0
198229  1  0  0  0  0
198230  1  0  0  0  0
199231  1  0  0  0  0
200232  1  0  0  0  0
202233  1  0  0  0  0
203234  1  0  0  0  0
208235  1  0  0  0  0
209236  1  0  0  0  0
214237  1  0  0  0  0
215238  1  0  0  0  0
217239  1  0  0  0  0
217240  1  0  0  0  0
218241  1  0  0  0  0
219242  1  0  0  0  0
221243  1  0  0  0  0
222244  1  0  0  0  0
M  END
