 xtb: 6.5.1 (b24c23e)
          07262214183D

 78 87  0     0  0            999 V2000
    4.3481   -0.0795    0.0093 C   0  0  0  0  0  0  0  0  0  0  0  0
    4.9655   -1.3220   -0.0588 C   0  0  0  0  0  0  0  0  0  0  0  0
    4.3431   -2.6016   -0.1286 C   0  0  0  0  0  0  0  0  0  0  0  0
    5.3288   -3.5464   -0.1829 C   0  0  0  0  0  0  0  0  0  0  0  0
    6.5845   -2.8744   -0.1466 C   0  0  0  0  0  0  0  0  0  0  0  0
    6.3140   -1.5383   -0.0729 N   0  0  0  0  0  0  0  0  0  0  0  0
    7.8495   -3.4491   -0.1748 C   0  0  0  0  0  0  0  0  0  0  0  0
    9.0722   -2.7941   -0.1342 C   0  0  0  0  0  0  0  0  0  0  0  0
   10.3482   -3.4868   -0.1614 C   0  0  0  0  0  0  0  0  0  0  0  0
   11.3009   -2.5329   -0.1069 C   0  0  0  0  0  0  0  0  0  0  0  0
    9.2695   -1.4496   -0.0651 N   0  0  0  0  0  0  0  0  0  0  0  0
   10.6029   -1.2611   -0.0487 C   0  0  0  0  0  0  0  0  0  0  0  0
   11.2620   -0.0158    0.0080 C   0  0  0  0  0  0  0  0  0  0  0  0
   10.6196    1.2355    0.0592 C   0  0  0  0  0  0  0  0  0  0  0  0
   11.2373    2.5142    0.1158 C   0  0  0  0  0  0  0  0  0  0  0  0
   10.2480    3.4577    0.1573 C   0  0  0  0  0  0  0  0  0  0  0  0
    8.9965    2.7814    0.1281 C   0  0  0  0  0  0  0  0  0  0  0  0
    9.2735    1.4423    0.0682 N   0  0  0  0  0  0  0  0  0  0  0  0
    7.7321    3.3565    0.1572 C   0  0  0  0  0  0  0  0  0  0  0  0
    6.5090    2.6981    0.1325 C   0  0  0  0  0  0  0  0  0  0  0  0
    5.2267    3.3841    0.1710 C   0  0  0  0  0  0  0  0  0  0  0  0
    4.2800    2.4251    0.1322 C   0  0  0  0  0  0  0  0  0  0  0  0
    4.9848    1.1546    0.0685 C   0  0  0  0  0  0  0  0  0  0  0  0
    6.3236    1.3584    0.0714 N   0  0  0  0  0  0  0  0  0  0  0  0
    3.2632   -0.0817    0.0137 H   0  0  0  0  0  0  0  0  0  0  0  0
    3.2767   -2.7626   -0.1361 H   0  0  0  0  0  0  0  0  0  0  0  0
    5.2111   -4.6168   -0.2427 H   0  0  0  0  0  0  0  0  0  0  0  0
    7.0143   -0.8055   -0.0332 H   0  0  0  0  0  0  0  0  0  0  0  0
    7.8752   -4.5326   -0.2331 H   0  0  0  0  0  0  0  0  0  0  0  0
   10.4653   -4.5579   -0.2146 H   0  0  0  0  0  0  0  0  0  0  0  0
   12.3732   -2.6479   -0.1059 H   0  0  0  0  0  0  0  0  0  0  0  0
   12.3030    2.6781    0.1233 H   0  0  0  0  0  0  0  0  0  0  0  0
   10.3633    4.5288    0.2049 H   0  0  0  0  0  0  0  0  0  0  0  0
    8.5757    0.7064    0.0361 H   0  0  0  0  0  0  0  0  0  0  0  0
    7.7075    4.4404    0.2060 H   0  0  0  0  0  0  0  0  0  0  0  0
    5.1044    4.4549    0.2210 H   0  0  0  0  0  0  0  0  0  0  0  0
    3.2065    2.5324    0.1432 H   0  0  0  0  0  0  0  0  0  0  0  0
   24.7789    0.0754   -0.0313 C   0  0  0  0  0  0  0  0  0  0  0  0
   24.1614    1.3009   -0.2469 C   0  0  0  0  0  0  0  0  0  0  0  0
   24.7837    2.5615   -0.4777 C   0  0  0  0  0  0  0  0  0  0  0  0
   23.7979    3.4949   -0.6337 C   0  0  0  0  0  0  0  0  0  0  0  0
   22.5424    2.8343   -0.5040 C   0  0  0  0  0  0  0  0  0  0  0  0
   22.8129    1.5164   -0.2724 N   0  0  0  0  0  0  0  0  0  0  0  0
   21.2773    3.4027   -0.5932 C   0  0  0  0  0  0  0  0  0  0  0  0
   20.0547    2.7579   -0.4705 C   0  0  0  0  0  0  0  0  0  0  0  0
   18.7786    3.4417   -0.5836 C   0  0  0  0  0  0  0  0  0  0  0  0
   17.8261    2.5012   -0.4147 C   0  0  0  0  0  0  0  0  0  0  0  0
   19.8576    1.4321   -0.2367 N   0  0  0  0  0  0  0  0  0  0  0  0
   18.5242    1.2467   -0.1984 C   0  0  0  0  0  0  0  0  0  0  0  0
   17.8649    0.0186    0.0153 C   0  0  0  0  0  0  0  0  0  0  0  0
   18.5072   -1.2151    0.2308 C   0  0  0  0  0  0  0  0  0  0  0  0
   17.8897   -2.4748    0.4579 C   0  0  0  0  0  0  0  0  0  0  0  0
   18.8792   -3.4039    0.6264 C   0  0  0  0  0  0  0  0  0  0  0  0
   20.1306   -2.7376    0.5060 C   0  0  0  0  0  0  0  0  0  0  0  0
   19.8534   -1.4186    0.2674 N   0  0  0  0  0  0  0  0  0  0  0  0
   21.3951   -3.3042    0.6078 C   0  0  0  0  0  0  0  0  0  0  0  0
   22.6181   -2.6567    0.4850 C   0  0  0  0  0  0  0  0  0  0  0  0
   23.9004   -3.3337    0.6021 C   0  0  0  0  0  0  0  0  0  0  0  0
   24.8471   -2.3911    0.4215 C   0  0  0  0  0  0  0  0  0  0  0  0
   24.1422   -1.1391    0.1958 C   0  0  0  0  0  0  0  0  0  0  0  0
   22.8035   -1.3379    0.2414 N   0  0  0  0  0  0  0  0  0  0  0  0
   25.8637    0.0757   -0.0410 H   0  0  0  0  0  0  0  0  0  0  0  0
   25.8500    2.7184   -0.5162 H   0  0  0  0  0  0  0  0  0  0  0  0
   23.9155    4.5502   -0.8225 H   0  0  0  0  0  0  0  0  0  0  0  0
   22.1128    0.7949   -0.1373 H   0  0  0  0  0  0  0  0  0  0  0  0
   21.2516    4.4713   -0.7816 H   0  0  0  0  0  0  0  0  0  0  0  0
   18.6614    4.4981   -0.7683 H   0  0  0  0  0  0  0  0  0  0  0  0
   16.7537    2.6149   -0.4299 H   0  0  0  0  0  0  0  0  0  0  0  0
   16.8241   -2.6366    0.4871 H   0  0  0  0  0  0  0  0  0  0  0  0
   18.7642   -4.4590    0.8174 H   0  0  0  0  0  0  0  0  0  0  0  0
   20.5509   -0.6934    0.1368 H   0  0  0  0  0  0  0  0  0  0  0  0
   21.4198   -4.3714    0.8030 H   0  0  0  0  0  0  0  0  0  0  0  0
   24.0228   -4.3880    0.7960 H   0  0  0  0  0  0  0  0  0  0  0  0
   25.9206   -2.4982    0.4341 H   0  0  0  0  0  0  0  0  0  0  0  0
   13.8888   -0.0063    0.0138 C   0  0  0  0  0  0  0  0  0  0  0  0
   12.6668   -0.0085    0.0126 C   0  0  0  0  0  0  0  0  0  0  0  0
   15.2381    0.0004    0.0158 C   0  0  0  0  0  0  0  0  0  0  0  0
   16.4601    0.0116    0.0160 C   0  0  0  0  0  0  0  0  0  0  0  0
  1  2  4  0  0  0  0
  2  3  4  0  0  0  0
  3  4  2  0  0  0  0
  4  5  4  0  0  0  0
  2  6  4  0  0  0  0
  5  6  4  0  0  0  0
  5  7  4  0  0  0  0
  7  8  4  0  0  0  0
  8  9  1  0  0  0  0
  9 10  2  0  0  0  0
  8 11  4  0  0  0  0
 10 12  1  0  0  0  0
 11 12  4  0  0  0  0
 12 13  4  0  0  0  0
 13 14  4  0  0  0  0
 14 15  4  0  0  0  0
 15 16  2  0  0  0  0
 16 17  4  0  0  0  0
 14 18  4  0  0  0  0
 17 18  4  0  0  0  0
 17 19  4  0  0  0  0
 19 20  4  0  0  0  0
 20 21  1  0  0  0  0
 21 22  2  0  0  0  0
  1 23  4  0  0  0  0
 22 23  1  0  0  0  0
 20 24  4  0  0  0  0
 23 24  4  0  0  0  0
  1 25  1  0  0  0  0
  3 26  1  0  0  0  0
  4 27  1  0  0  0  0
  6 28  1  0  0  0  0
  7 29  1  0  0  0  0
  9 30  1  0  0  0  0
 10 31  1  0  0  0  0
 15 32  1  0  0  0  0
 16 33  1  0  0  0  0
 18 34  1  0  0  0  0
 19 35  1  0  0  0  0
 21 36  1  0  0  0  0
 22 37  1  0  0  0  0
 38 39  4  0  0  0  0
 39 40  4  0  0  0  0
 40 41  2  0  0  0  0
 41 42  4  0  0  0  0
 39 43  4  0  0  0  0
 42 43  4  0  0  0  0
 42 44  4  0  0  0  0
 44 45  4  0  0  0  0
 45 46  1  0  0  0  0
 46 47  2  0  0  0  0
 45 48  4  0  0  0  0
 47 49  1  0  0  0  0
 48 49  4  0  0  0  0
 49 50  4  0  0  0  0
 50 51  4  0  0  0  0
 51 52  4  0  0  0  0
 52 53  2  0  0  0  0
 53 54  4  0  0  0  0
 51 55  4  0  0  0  0
 54 55  4  0  0  0  0
 54 56  4  0  0  0  0
 56 57  4  0  0  0  0
 57 58  1  0  0  0  0
 58 59  2  0  0  0  0
 38 60  4  0  0  0  0
 59 60  1  0  0  0  0
 57 61  4  0  0  0  0
 60 61  4  0  0  0  0
 38 62  1  0  0  0  0
 40 63  1  0  0  0  0
 41 64  1  0  0  0  0
 43 65  1  0  0  0  0
 44 66  1  0  0  0  0
 46 67  1  0  0  0  0
 47 68  1  0  0  0  0
 52 69  1  0  0  0  0
 53 70  1  0  0  0  0
 55 71  1  0  0  0  0
 56 72  1  0  0  0  0
 58 73  1  0  0  0  0
 59 74  1  0  0  0  0
 13 76  4  0  0  0  0
 75 76  3  0  0  0  0
 75 77  4  0  0  0  0
 50 78  4  0  0  0  0
 77 78  3  0  0  0  0
M  END
