 xtb: 6.5.1 (b24c23e)
          07292222393D

334368  0     0  0            999 V2000
   49.5417   -0.0937    0.0579 C   0  0  0  0  0  0  0  0  0  0  0  0
   50.1556   -0.9665    0.9473 C   0  0  0  0  0  0  0  0  0  0  0  0
   49.5090   -1.8872    1.8181 C   0  0  0  0  0  0  0  0  0  0  0  0
   50.4743   -2.5414    2.5314 C   0  0  0  0  0  0  0  0  0  0  0  0
   51.7412   -2.0330    2.1274 C   0  0  0  0  0  0  0  0  0  0  0  0
   51.4986   -1.0957    1.1635 N   0  0  0  0  0  0  0  0  0  0  0  0
   53.0056   -2.4107    2.5969 C   0  0  0  0  0  0  0  0  0  0  0  0
   53.0405   -3.4223    3.6792 C   0  0  0  0  0  0  0  0  0  0  0  0
   53.7077   -4.6364    3.4980 C   0  0  0  0  0  0  0  0  0  0  0  0
   53.7369   -5.5870    4.5027 C   0  0  0  0  0  0  0  0  0  0  0  0
   53.1078   -5.3356    5.7248 C   0  0  0  0  0  0  0  0  0  0  0  0
   53.1012   -6.2995    6.7178 N   0  0  0  0  0  0  0  0  0  0  0  0
   52.4347   -4.1256    5.9128 C   0  0  0  0  0  0  0  0  0  0  0  0
   52.4022   -3.1845    4.8991 C   0  0  0  0  0  0  0  0  0  0  0  0
   54.2167   -1.9037    2.1190 C   0  0  0  0  0  0  0  0  0  0  0  0
   55.5145   -2.2556    2.6659 C   0  0  0  0  0  0  0  0  0  0  0  0
   56.4312   -1.5787    1.9432 C   0  0  0  0  0  0  0  0  0  0  0  0
   54.3666   -1.0110    1.1010 N   0  0  0  0  0  0  0  0  0  0  0  0
   55.6918   -0.8060    0.9644 C   0  0  0  0  0  0  0  0  0  0  0  0
   56.3253    0.0218    0.0139 C   0  0  0  0  0  0  0  0  0  0  0  0
   55.6852    0.8449   -0.9328 C   0  0  0  0  0  0  0  0  0  0  0  0
   56.3255    1.6528   -1.9090 C   0  0  0  0  0  0  0  0  0  0  0  0
   55.3558    2.3102   -2.6147 C   0  0  0  0  0  0  0  0  0  0  0  0
   54.0923    1.9304   -2.0839 C   0  0  0  0  0  0  0  0  0  0  0  0
   54.3436    1.0352   -1.0769 N   0  0  0  0  0  0  0  0  0  0  0  0
   52.8291    2.3591   -2.5072 C   0  0  0  0  0  0  0  0  0  0  0  0
   52.7908    3.3726   -3.5864 C   0  0  0  0  0  0  0  0  0  0  0  0
   52.1289    3.1088   -4.7885 C   0  0  0  0  0  0  0  0  0  0  0  0
   52.0898    4.0523   -5.7994 C   0  0  0  0  0  0  0  0  0  0  0  0
   52.7031    5.2955   -5.6227 C   0  0  0  0  0  0  0  0  0  0  0  0
   52.6980    6.2278   -6.6453 N   0  0  0  0  0  0  0  0  0  0  0  0
   53.3721    5.5654   -4.4260 C   0  0  0  0  0  0  0  0  0  0  0  0
   53.4147    4.6123   -3.4241 C   0  0  0  0  0  0  0  0  0  0  0  0
   51.6155    1.8973   -1.9833 C   0  0  0  0  0  0  0  0  0  0  0  0
   50.3088    2.3920   -2.3872 C   0  0  0  0  0  0  0  0  0  0  0  0
   49.3992    1.6987   -1.6726 C   0  0  0  0  0  0  0  0  0  0  0  0
   50.1491    0.7922   -0.8222 C   0  0  0  0  0  0  0  0  0  0  0  0
   51.4805    0.9471   -1.0285 N   0  0  0  0  0  0  0  0  0  0  0  0
   48.4564   -0.1114    0.0595 H   0  0  0  0  0  0  0  0  0  0  0  0
   48.4412   -2.0271    1.8765 H   0  0  0  0  0  0  0  0  0  0  0  0
   50.3268   -3.3163    3.2660 H   0  0  0  0  0  0  0  0  0  0  0  0
   52.2214   -0.5770    0.6759 H   0  0  0  0  0  0  0  0  0  0  0  0
   54.1901   -4.8432    2.5490 H   0  0  0  0  0  0  0  0  0  0  0  0
   54.2485   -6.5303    4.3457 H   0  0  0  0  0  0  0  0  0  0  0  0
   52.9346   -5.9515    7.6484 H   0  0  0  0  0  0  0  0  0  0  0  0
   53.8487   -6.9728    6.6628 H   0  0  0  0  0  0  0  0  0  0  0  0
   51.9420   -3.9256    6.8580 H   0  0  0  0  0  0  0  0  0  0  0  0
   51.8948   -2.2396    5.0610 H   0  0  0  0  0  0  0  0  0  0  0  0
   55.6801   -2.9179    3.5002 H   0  0  0  0  0  0  0  0  0  0  0  0
   57.5043   -1.5775    2.0491 H   0  0  0  0  0  0  0  0  0  0  0  0
   57.3927    1.7120   -2.0502 H   0  0  0  0  0  0  0  0  0  0  0  0
   55.5003    2.9889   -3.4394 H   0  0  0  0  0  0  0  0  0  0  0  0
   53.6236    0.5760   -0.5289 H   0  0  0  0  0  0  0  0  0  0  0  0
   51.6593    2.1427   -4.9378 H   0  0  0  0  0  0  0  0  0  0  0  0
   51.5824    3.8311   -6.7320 H   0  0  0  0  0  0  0  0  0  0  0  0
   51.9525    6.1223   -7.3148 H   0  0  0  0  0  0  0  0  0  0  0  0
   52.8535    7.1800   -6.3552 H   0  0  0  0  0  0  0  0  0  0  0  0
   53.8530    6.5271   -4.2841 H   0  0  0  0  0  0  0  0  0  0  0  0
   53.9179    4.8385   -2.4903 H   0  0  0  0  0  0  0  0  0  0  0  0
   50.1349    3.1745   -3.1083 H   0  0  0  0  0  0  0  0  0  0  0  0
   48.3234    1.7788   -1.6893 H   0  0  0  0  0  0  0  0  0  0  0  0
  130.6421    0.0673   -0.1016 C   0  0  0  0  0  0  0  0  0  0  0  0
  130.0247    0.7226   -1.1595 C   0  0  0  0  0  0  0  0  0  0  0  0
  130.6683    1.3638   -2.2544 C   0  0  0  0  0  0  0  0  0  0  0  0
  129.6999    1.8914   -3.0620 C   0  0  0  0  0  0  0  0  0  0  0  0
  128.4338    1.5993   -2.4802 C   0  0  0  0  0  0  0  0  0  0  0  0
  128.6803    0.8845   -1.3423 N   0  0  0  0  0  0  0  0  0  0  0  0
  127.1669    1.9483   -2.9650 C   0  0  0  0  0  0  0  0  0  0  0  0
  127.1272    2.7622   -4.2027 C   0  0  0  0  0  0  0  0  0  0  0  0
  126.4750    2.2908   -5.3449 C   0  0  0  0  0  0  0  0  0  0  0  0
  126.4406    3.0445   -6.5044 C   0  0  0  0  0  0  0  0  0  0  0  0
  127.0487    4.3020   -6.5420 C   0  0  0  0  0  0  0  0  0  0  0  0
  127.0500    5.0421   -7.7114 N   0  0  0  0  0  0  0  0  0  0  0  0
  127.7069    4.7790   -5.4055 C   0  0  0  0  0  0  0  0  0  0  0  0
  127.7450    4.0143   -4.2530 C   0  0  0  0  0  0  0  0  0  0  0  0
  125.9576    1.5862   -2.3663 C   0  0  0  0  0  0  0  0  0  0  0  0
  124.6562    2.0152   -2.8455 C   0  0  0  0  0  0  0  0  0  0  0  0
  123.7429    1.4639   -2.0192 C   0  0  0  0  0  0  0  0  0  0  0  0
  125.8127    0.8091   -1.2568 N   0  0  0  0  0  0  0  0  0  0  0  0
  124.4877    0.7092   -1.0305 C   0  0  0  0  0  0  0  0  0  0  0  0
  123.8587   -0.0165    0.0027 C   0  0  0  0  0  0  0  0  0  0  0  0
  124.5028   -0.7306    1.0317 C   0  0  0  0  0  0  0  0  0  0  0  0
  123.8668   -1.4905    2.0484 C   0  0  0  0  0  0  0  0  0  0  0  0
  124.8396   -2.0167    2.8529 C   0  0  0  0  0  0  0  0  0  0  0  0
  126.1008   -1.5848    2.3575 C   0  0  0  0  0  0  0  0  0  0  0  0
  125.8449   -0.8182    1.2503 N   0  0  0  0  0  0  0  0  0  0  0  0
  127.3660   -1.8903    2.8716 C   0  0  0  0  0  0  0  0  0  0  0  0
  127.4104   -2.7074    4.1061 C   0  0  0  0  0  0  0  0  0  0  0  0
  128.0784   -3.9347    4.1232 C   0  0  0  0  0  0  0  0  0  0  0  0
  128.1231   -4.7027    5.2729 C   0  0  0  0  0  0  0  0  0  0  0  0
  127.5096   -4.2494    6.4436 C   0  0  0  0  0  0  0  0  0  0  0  0
  127.5202   -5.0317    7.5850 N   0  0  0  0  0  0  0  0  0  0  0  0
  126.8348   -3.0258    6.4338 C   0  0  0  0  0  0  0  0  0  0  0  0
  126.7865   -2.2687    5.2769 C   0  0  0  0  0  0  0  0  0  0  0  0
  128.5771   -1.4795    2.3014 C   0  0  0  0  0  0  0  0  0  0  0  0
  129.8851   -1.7479    2.8779 C   0  0  0  0  0  0  0  0  0  0  0  0
  130.7916   -1.2034    2.0408 C   0  0  0  0  0  0  0  0  0  0  0  0
  130.0383   -0.5912    0.9614 C   0  0  0  0  0  0  0  0  0  0  0  0
  128.7081   -0.7683    1.1569 N   0  0  0  0  0  0  0  0  0  0  0  0
  131.7275    0.0773   -0.1151 H   0  0  0  0  0  0  0  0  0  0  0  0
  131.7364    1.4028   -2.3983 H   0  0  0  0  0  0  0  0  0  0  0  0
  129.8447    2.4272   -3.9861 H   0  0  0  0  0  0  0  0  0  0  0  0
  127.9592    0.5215   -0.7279 H   0  0  0  0  0  0  0  0  0  0  0  0
  126.0088    1.3118   -5.3267 H   0  0  0  0  0  0  0  0  0  0  0  0
  125.9408    2.6627   -7.3879 H   0  0  0  0  0  0  0  0  0  0  0  0
  127.1990    6.0310   -7.5895 H   0  0  0  0  0  0  0  0  0  0  0  0
  126.3099    4.8187   -8.3575 H   0  0  0  0  0  0  0  0  0  0  0  0
  128.1835    5.7530   -5.4291 H   0  0  0  0  0  0  0  0  0  0  0  0
  128.2404    4.4012   -3.3691 H   0  0  0  0  0  0  0  0  0  0  0  0
  124.4859    2.6639   -3.6894 H   0  0  0  0  0  0  0  0  0  0  0  0
  122.6687    1.5530   -2.0486 H   0  0  0  0  0  0  0  0  0  0  0  0
  122.8003   -1.6190    2.1398 H   0  0  0  0  0  0  0  0  0  0  0  0
  124.6988   -2.6585    3.7073 H   0  0  0  0  0  0  0  0  0  0  0  0
  126.5626   -0.3912    0.6739 H   0  0  0  0  0  0  0  0  0  0  0  0
  128.5484   -4.2986    3.2161 H   0  0  0  0  0  0  0  0  0  0  0  0
  128.6353   -5.6587    5.2700 H   0  0  0  0  0  0  0  0  0  0  0  0
  128.2686   -5.7044    7.6341 H   0  0  0  0  0  0  0  0  0  0  0  0
  127.3638   -4.5325    8.4460 H   0  0  0  0  0  0  0  0  0  0  0  0
  126.3539   -2.6699    7.3384 H   0  0  0  0  0  0  0  0  0  0  0  0
  126.2789   -1.3102    5.2844 H   0  0  0  0  0  0  0  0  0  0  0  0
  130.0618   -2.2685    3.8053 H   0  0  0  0  0  0  0  0  0  0  0  0
  131.8672   -1.1917    2.1248 H   0  0  0  0  0  0  0  0  0  0  0  0
   57.7300    0.0366    0.0005 C   0  0  0  0  0  0  0  0  0  0  0  0
   58.9551    0.0484   -0.0102 C   0  0  0  0  0  0  0  0  0  0  0  0
   60.2972    0.0559   -0.0187 C   0  0  0  0  0  0  0  0  0  0  0  0
   61.5285    0.0602   -0.0241 C   0  0  0  0  0  0  0  0  0  0  0  0
   62.8658    0.0647   -0.0279 C   0  0  0  0  0  0  0  0  0  0  0  0
   64.0972    0.0683   -0.0296 C   0  0  0  0  0  0  0  0  0  0  0  0
   65.4391    0.0683   -0.0288 C   0  0  0  0  0  0  0  0  0  0  0  0
   66.6645    0.0711   -0.0275 C   0  0  0  0  0  0  0  0  0  0  0  0
   76.3267   -0.0227   -0.0111 C   0  0  0  0  0  0  0  0  0  0  0  0
   77.5522   -0.0393   -0.0129 C   0  0  0  0  0  0  0  0  0  0  0  0
   78.8936   -0.0544   -0.0125 C   0  0  0  0  0  0  0  0  0  0  0  0
   80.1252   -0.0628   -0.0121 C   0  0  0  0  0  0  0  0  0  0  0  0
   81.4620   -0.0659   -0.0114 C   0  0  0  0  0  0  0  0  0  0  0  0
   82.6936   -0.0638   -0.0118 C   0  0  0  0  0  0  0  0  0  0  0  0
   84.0350   -0.0558   -0.0079 C   0  0  0  0  0  0  0  0  0  0  0  0
   85.2606   -0.0436   -0.0068 C   0  0  0  0  0  0  0  0  0  0  0  0
   94.9227   -0.0286   -0.0082 C   0  0  0  0  0  0  0  0  0  0  0  0
   96.1482   -0.0389   -0.0133 C   0  0  0  0  0  0  0  0  0  0  0  0
   97.4897   -0.0459   -0.0150 C   0  0  0  0  0  0  0  0  0  0  0  0
   98.7213   -0.0485   -0.0137 C   0  0  0  0  0  0  0  0  0  0  0  0
  100.0581   -0.0467   -0.0122 C   0  0  0  0  0  0  0  0  0  0  0  0
  101.2897   -0.0407   -0.0132 C   0  0  0  0  0  0  0  0  0  0  0  0
  102.6312   -0.0345   -0.0067 C   0  0  0  0  0  0  0  0  0  0  0  0
  103.8567   -0.0250   -0.0053 C   0  0  0  0  0  0  0  0  0  0  0  0
  113.5197   -0.0254    0.0178 C   0  0  0  0  0  0  0  0  0  0  0  0
  114.7450   -0.0380    0.0180 C   0  0  0  0  0  0  0  0  0  0  0  0
  116.0868   -0.0499    0.0241 C   0  0  0  0  0  0  0  0  0  0  0  0
  117.3181   -0.0569    0.0277 C   0  0  0  0  0  0  0  0  0  0  0  0
  118.6555   -0.0585    0.0323 C   0  0  0  0  0  0  0  0  0  0  0  0
  119.8867   -0.0565    0.0315 C   0  0  0  0  0  0  0  0  0  0  0  0
  121.2289   -0.0477    0.0274 C   0  0  0  0  0  0  0  0  0  0  0  0
  122.4540   -0.0343    0.0179 C   0  0  0  0  0  0  0  0  0  0  0  0
   68.0683    0.0726   -0.0209 C   0  0  0  0  0  0  0  0  0  0  0  0
   68.6893   -0.2411    1.2045 C   0  0  0  0  0  0  0  0  0  0  0  0
   68.0345   -0.5846    2.4147 C   0  0  0  0  0  0  0  0  0  0  0  0
   68.9939   -0.7815    3.3708 C   0  0  0  0  0  0  0  0  0  0  0  0
   70.2627   -0.5549    2.7725 C   0  0  0  0  0  0  0  0  0  0  0  0
   70.0281   -0.2440    1.4594 N   0  0  0  0  0  0  0  0  0  0  0  0
   71.5180   -0.6402    3.3895 C   0  0  0  0  0  0  0  0  0  0  0  0
   71.5229   -0.9289    4.8431 C   0  0  0  0  0  0  0  0  0  0  0  0
   72.1690   -2.0627    5.3428 C   0  0  0  0  0  0  0  0  0  0  0  0
   72.1756   -2.3357    6.6989 C   0  0  0  0  0  0  0  0  0  0  0  0
   71.5455   -1.4657    7.5928 C   0  0  0  0  0  0  0  0  0  0  0  0
   71.5187   -1.7544    8.9456 N   0  0  0  0  0  0  0  0  0  0  0  0
   70.8922   -0.3327    7.1007 C   0  0  0  0  0  0  0  0  0  0  0  0
   70.8813   -0.0729    5.7419 C   0  0  0  0  0  0  0  0  0  0  0  0
   72.7457   -0.4755    2.7447 C   0  0  0  0  0  0  0  0  0  0  0  0
   74.0277   -0.5066    3.4249 C   0  0  0  0  0  0  0  0  0  0  0  0
   74.9702   -0.3349    2.4744 C   0  0  0  0  0  0  0  0  0  0  0  0
   72.9298   -0.2601    1.4123 N   0  0  0  0  0  0  0  0  0  0  0  0
   74.2619   -0.1852    1.2193 C   0  0  0  0  0  0  0  0  0  0  0  0
   74.9236    0.0017   -0.0120 C   0  0  0  0  0  0  0  0  0  0  0  0
   74.3015    0.2205   -1.2573 C   0  0  0  0  0  0  0  0  0  0  0  0
   74.9545    0.3789   -2.5062 C   0  0  0  0  0  0  0  0  0  0  0  0
   73.9953    0.5997   -3.4572 C   0  0  0  0  0  0  0  0  0  0  0  0
   72.7287    0.5918   -2.8131 C   0  0  0  0  0  0  0  0  0  0  0  0
   72.9641    0.3456   -1.4864 N   0  0  0  0  0  0  0  0  0  0  0  0
   71.4746    0.7852   -3.4074 C   0  0  0  0  0  0  0  0  0  0  0  0
   71.4708    1.1009   -4.8553 C   0  0  0  0  0  0  0  0  0  0  0  0
   72.1361    2.2299   -5.3403 C   0  0  0  0  0  0  0  0  0  0  0  0
   72.1306    2.5318   -6.6904 C   0  0  0  0  0  0  0  0  0  0  0  0
   71.4589    1.7017   -7.5918 C   0  0  0  0  0  0  0  0  0  0  0  0
   71.4921    1.9730   -8.9480 N   0  0  0  0  0  0  0  0  0  0  0  0
   70.8036    0.5626   -7.1166 C   0  0  0  0  0  0  0  0  0  0  0  0
   70.8052    0.2739   -5.7638 C   0  0  0  0  0  0  0  0  0  0  0  0
   70.2476    0.7023   -2.7452 C   0  0  0  0  0  0  0  0  0  0  0  0
   68.9680    0.9718   -3.3755 C   0  0  0  0  0  0  0  0  0  0  0  0
   68.0252    0.7664   -2.4320 C   0  0  0  0  0  0  0  0  0  0  0  0
   68.7310    0.3864   -1.2252 C   0  0  0  0  0  0  0  0  0  0  0  0
   70.0625    0.3694   -1.4377 N   0  0  0  0  0  0  0  0  0  0  0  0
   66.9662   -0.6730    2.5299 H   0  0  0  0  0  0  0  0  0  0  0  0
   68.8376   -1.0703    4.3973 H   0  0  0  0  0  0  0  0  0  0  0  0
   70.7528   -0.0519    0.7760 H   0  0  0  0  0  0  0  0  0  0  0  0
   72.6526   -2.7473    4.6547 H   0  0  0  0  0  0  0  0  0  0  0  0
   72.6710   -3.2248    7.0733 H   0  0  0  0  0  0  0  0  0  0  0  0
   72.2541   -2.3635    9.2666 H   0  0  0  0  0  0  0  0  0  0  0  0
   71.3523   -0.9638    9.5475 H   0  0  0  0  0  0  0  0  0  0  0  0
   70.3982    0.3445    7.7889 H   0  0  0  0  0  0  0  0  0  0  0  0
   70.3892    0.8195    5.3706 H   0  0  0  0  0  0  0  0  0  0  0  0
   74.1670   -0.6272    4.4870 H   0  0  0  0  0  0  0  0  0  0  0  0
   76.0419   -0.2980    2.5875 H   0  0  0  0  0  0  0  0  0  0  0  0
   76.0213    0.3235   -2.6514 H   0  0  0  0  0  0  0  0  0  0  0  0
   74.1503    0.7430   -4.5140 H   0  0  0  0  0  0  0  0  0  0  0  0
   72.2405    0.2612   -0.7803 H   0  0  0  0  0  0  0  0  0  0  0  0
   72.6432    2.8903   -4.6453 H   0  0  0  0  0  0  0  0  0  0  0  0
   72.6438    3.4157   -7.0532 H   0  0  0  0  0  0  0  0  0  0  0  0
   70.7478    1.5573   -9.4849 H   0  0  0  0  0  0  0  0  0  0  0  0
   71.6802    2.9334   -9.1869 H   0  0  0  0  0  0  0  0  0  0  0  0
   70.2932   -0.0935   -7.8132 H   0  0  0  0  0  0  0  0  0  0  0  0
   70.3025   -0.6172   -5.4043 H   0  0  0  0  0  0  0  0  0  0  0  0
   68.8308    1.2898   -4.3963 H   0  0  0  0  0  0  0  0  0  0  0  0
   66.9548    0.8664   -2.5164 H   0  0  0  0  0  0  0  0  0  0  0  0
   86.6638   -0.0274   -0.0037 C   0  0  0  0  0  0  0  0  0  0  0  0
   87.2908   -0.3200    1.2240 C   0  0  0  0  0  0  0  0  0  0  0  0
   86.6418   -0.6586    2.4387 C   0  0  0  0  0  0  0  0  0  0  0  0
   87.6050   -0.8347    3.3950 C   0  0  0  0  0  0  0  0  0  0  0  0
   88.8701   -0.6001    2.7921 C   0  0  0  0  0  0  0  0  0  0  0  0
   88.6298   -0.3051    1.4763 N   0  0  0  0  0  0  0  0  0  0  0  0
   90.1273   -0.6676    3.4074 C   0  0  0  0  0  0  0  0  0  0  0  0
   90.1363   -0.9406    4.8640 C   0  0  0  0  0  0  0  0  0  0  0  0
   90.7908   -2.0639    5.3762 C   0  0  0  0  0  0  0  0  0  0  0  0
   90.7989   -2.3219    6.7353 C   0  0  0  0  0  0  0  0  0  0  0  0
   90.1619   -1.4471    7.6194 C   0  0  0  0  0  0  0  0  0  0  0  0
   90.1360   -1.7214    8.9752 N   0  0  0  0  0  0  0  0  0  0  0  0
   89.5004   -0.3243    7.1148 C   0  0  0  0  0  0  0  0  0  0  0  0
   89.4881   -0.0795    5.7533 C   0  0  0  0  0  0  0  0  0  0  0  0
   91.3523   -0.4987    2.7585 C   0  0  0  0  0  0  0  0  0  0  0  0
   92.6362   -0.5161    3.4355 C   0  0  0  0  0  0  0  0  0  0  0  0
   93.5750   -0.3436    2.4815 C   0  0  0  0  0  0  0  0  0  0  0  0
   91.5314   -0.2901    1.4244 N   0  0  0  0  0  0  0  0  0  0  0  0
   92.8623   -0.2056    1.2275 C   0  0  0  0  0  0  0  0  0  0  0  0
   93.5194   -0.0158   -0.0059 C   0  0  0  0  0  0  0  0  0  0  0  0
   92.8926    0.1975   -1.2498 C   0  0  0  0  0  0  0  0  0  0  0  0
   93.5418    0.3674   -2.4993 C   0  0  0  0  0  0  0  0  0  0  0  0
   92.5786    0.5795   -3.4482 C   0  0  0  0  0  0  0  0  0  0  0  0
   91.3131    0.5532   -2.8025 C   0  0  0  0  0  0  0  0  0  0  0  0
   91.5534    0.3064   -1.4768 N   0  0  0  0  0  0  0  0  0  0  0  0
   90.0557    0.7294   -3.3954 C   0  0  0  0  0  0  0  0  0  0  0  0
   90.0464    1.0523   -4.8418 C   0  0  0  0  0  0  0  0  0  0  0  0
   90.6905    2.1966   -5.3195 C   0  0  0  0  0  0  0  0  0  0  0  0
   90.6774    2.5082   -6.6674 C   0  0  0  0  0  0  0  0  0  0  0  0
   90.0192    1.6727   -7.5738 C   0  0  0  0  0  0  0  0  0  0  0  0
   90.0442    1.9551   -8.9279 N   0  0  0  0  0  0  0  0  0  0  0  0
   89.3865    0.5178   -7.1061 C   0  0  0  0  0  0  0  0  0  0  0  0
   89.3954    0.2194   -5.7554 C   0  0  0  0  0  0  0  0  0  0  0  0
   88.8306    0.6248   -2.7333 C   0  0  0  0  0  0  0  0  0  0  0  0
   87.5463    0.8714   -3.3633 C   0  0  0  0  0  0  0  0  0  0  0  0
   86.6076    0.6511   -2.4190 C   0  0  0  0  0  0  0  0  0  0  0  0
   87.3206    0.2862   -1.2117 C   0  0  0  0  0  0  0  0  0  0  0  0
   88.6517    0.2902   -1.4251 N   0  0  0  0  0  0  0  0  0  0  0  0
   85.5749   -0.7581    2.5565 H   0  0  0  0  0  0  0  0  0  0  0  0
   87.4537   -1.1148    4.4246 H   0  0  0  0  0  0  0  0  0  0  0  0
   89.3512   -0.1111    0.7899 H   0  0  0  0  0  0  0  0  0  0  0  0
   91.2795   -2.7526    4.6959 H   0  0  0  0  0  0  0  0  0  0  0  0
   91.3008   -3.2031    7.1195 H   0  0  0  0  0  0  0  0  0  0  0  0
   90.8756   -2.3215    9.3035 H   0  0  0  0  0  0  0  0  0  0  0  0
   89.9628   -0.9257    9.5685 H   0  0  0  0  0  0  0  0  0  0  0  0
   89.0011    0.3567    7.7954 H   0  0  0  0  0  0  0  0  0  0  0  0
   88.9893    0.8049    5.3719 H   0  0  0  0  0  0  0  0  0  0  0  0
   92.7792   -0.6295    4.4979 H   0  0  0  0  0  0  0  0  0  0  0  0
   94.6467   -0.2982    2.5915 H   0  0  0  0  0  0  0  0  0  0  0  0
   94.6091    0.3259   -2.6461 H   0  0  0  0  0  0  0  0  0  0  0  0
   92.7301    0.7286   -4.5047 H   0  0  0  0  0  0  0  0  0  0  0  0
   90.8319    0.2116   -0.7700 H   0  0  0  0  0  0  0  0  0  0  0  0
   91.1866    2.8610   -4.6204 H   0  0  0  0  0  0  0  0  0  0  0  0
   91.1734    3.4041   -7.0244 H   0  0  0  0  0  0  0  0  0  0  0  0
   89.3063    1.5301   -9.4663 H   0  0  0  0  0  0  0  0  0  0  0  0
   90.2138    2.9208   -9.1595 H   0  0  0  0  0  0  0  0  0  0  0  0
   88.8873   -0.1426   -7.8067 H   0  0  0  0  0  0  0  0  0  0  0  0
   88.9099   -0.6836   -5.4017 H   0  0  0  0  0  0  0  0  0  0  0  0
   87.4030    1.1853   -4.3845 H   0  0  0  0  0  0  0  0  0  0  0  0
   85.5357    0.7328   -2.5031 H   0  0  0  0  0  0  0  0  0  0  0  0
  105.2600   -0.0103    0.0018 C   0  0  0  0  0  0  0  0  0  0  0  0
  105.8833   -0.3065    1.2304 C   0  0  0  0  0  0  0  0  0  0  0  0
  105.2307   -0.6467    2.4427 C   0  0  0  0  0  0  0  0  0  0  0  0
  106.1912   -0.8294    3.4004 C   0  0  0  0  0  0  0  0  0  0  0  0
  107.4585   -0.5973    2.8008 C   0  0  0  0  0  0  0  0  0  0  0  0
  107.2218   -0.2967    1.4855 N   0  0  0  0  0  0  0  0  0  0  0  0
  108.7141   -0.6723    3.4181 C   0  0  0  0  0  0  0  0  0  0  0  0
  108.7191   -0.9530    4.8733 C   0  0  0  0  0  0  0  0  0  0  0  0
  109.3680   -2.0816    5.3807 C   0  0  0  0  0  0  0  0  0  0  0  0
  109.3716   -2.3474    6.7383 C   0  0  0  0  0  0  0  0  0  0  0  0
  108.7356   -1.4753    7.6258 C   0  0  0  0  0  0  0  0  0  0  0  0
  108.7048   -1.7575    8.9799 N   0  0  0  0  0  0  0  0  0  0  0  0
  108.0800   -0.3470    7.1260 C   0  0  0  0  0  0  0  0  0  0  0  0
  108.0722   -0.0943    5.7659 C   0  0  0  0  0  0  0  0  0  0  0  0
  109.9411   -0.5045    2.7724 C   0  0  0  0  0  0  0  0  0  0  0  0
  111.2235   -0.5297    3.4522 C   0  0  0  0  0  0  0  0  0  0  0  0
  112.1649   -0.3543    2.5013 C   0  0  0  0  0  0  0  0  0  0  0  0
  110.1237   -0.2892    1.4401 N   0  0  0  0  0  0  0  0  0  0  0  0
  111.4556   -0.2069    1.2465 C   0  0  0  0  0  0  0  0  0  0  0  0
  112.1158   -0.0103    0.0162 C   0  0  0  0  0  0  0  0  0  0  0  0
  111.4929    0.2100   -1.2282 C   0  0  0  0  0  0  0  0  0  0  0  0
  112.1457    0.3833   -2.4754 C   0  0  0  0  0  0  0  0  0  0  0  0
  111.1851    0.5957   -3.4269 C   0  0  0  0  0  0  0  0  0  0  0  0
  109.9176    0.5667   -2.7851 C   0  0  0  0  0  0  0  0  0  0  0  0
  110.1542    0.3187   -1.4590 N   0  0  0  0  0  0  0  0  0  0  0  0
  108.6616    0.7408   -3.3816 C   0  0  0  0  0  0  0  0  0  0  0  0
  108.6545    1.0584   -4.8292 C   0  0  0  0  0  0  0  0  0  0  0  0
  109.2971    2.2016   -5.3115 C   0  0  0  0  0  0  0  0  0  0  0  0
  109.2840    2.5072   -6.6608 C   0  0  0  0  0  0  0  0  0  0  0  0
  108.6274    1.6669   -7.5638 C   0  0  0  0  0  0  0  0  0  0  0  0
  108.6520    1.9437   -8.9192 N   0  0  0  0  0  0  0  0  0  0  0  0
  107.9964    0.5130   -7.0915 C   0  0  0  0  0  0  0  0  0  0  0  0
  108.0053    0.2205   -5.7396 C   0  0  0  0  0  0  0  0  0  0  0  0
  107.4349    0.6376   -2.7223 C   0  0  0  0  0  0  0  0  0  0  0  0
  106.1525    0.8850   -3.3560 C   0  0  0  0  0  0  0  0  0  0  0  0
  105.2111    0.6676   -2.4138 C   0  0  0  0  0  0  0  0  0  0  0  0
  105.9205    0.3026   -1.2043 C   0  0  0  0  0  0  0  0  0  0  0  0
  107.2521    0.3048   -1.4142 N   0  0  0  0  0  0  0  0  0  0  0  0
  104.1631   -0.7428    2.5581 H   0  0  0  0  0  0  0  0  0  0  0  0
  106.0368   -1.1127    4.4286 H   0  0  0  0  0  0  0  0  0  0  0  0
  107.9451   -0.1032    0.8011 H   0  0  0  0  0  0  0  0  0  0  0  0
  109.8558   -2.7684    4.6977 H   0  0  0  0  0  0  0  0  0  0  0  0
  109.8691   -3.2328    7.1188 H   0  0  0  0  0  0  0  0  0  0  0  0
  109.4411   -2.3625    9.3066 H   0  0  0  0  0  0  0  0  0  0  0  0
  108.5333   -0.9647    9.5773 H   0  0  0  0  0  0  0  0  0  0  0  0
  107.5815    0.3320    7.8092 H   0  0  0  0  0  0  0  0  0  0  0  0
  107.5779    0.7943    5.3883 H   0  0  0  0  0  0  0  0  0  0  0  0
  111.3637   -0.6497    4.5143 H   0  0  0  0  0  0  0  0  0  0  0  0
  113.2364   -0.3126    2.6141 H   0  0  0  0  0  0  0  0  0  0  0  0
  113.2134    0.3433   -2.6190 H   0  0  0  0  0  0  0  0  0  0  0  0
  111.3397    0.7467   -4.4827 H   0  0  0  0  0  0  0  0  0  0  0  0
  109.4306    0.2211   -0.7547 H   0  0  0  0  0  0  0  0  0  0  0  0
  109.7917    2.8699   -4.6151 H   0  0  0  0  0  0  0  0  0  0  0  0
  109.7788    3.4024   -7.0215 H   0  0  0  0  0  0  0  0  0  0  0  0
  107.9148    1.5151   -9.4557 H   0  0  0  0  0  0  0  0  0  0  0  0
  108.8194    2.9088   -9.1548 H   0  0  0  0  0  0  0  0  0  0  0  0
  107.4985   -0.1511   -7.7895 H   0  0  0  0  0  0  0  0  0  0  0  0
  107.5209   -0.6815   -5.3820 H   0  0  0  0  0  0  0  0  0  0  0  0
  106.0122    1.1979   -4.3779 H   0  0  0  0  0  0  0  0  0  0  0  0
  104.1395    0.7508   -2.5006 H   0  0  0  0  0  0  0  0  0  0  0  0
  1  2  4  0  0  0  0
  2  3  4  0  0  0  0
  3  4  2  0  0  0  0
  4  5  4  0  0  0  0
  2  6  4  0  0  0  0
  5  6  4  0  0  0  0
  5  7  4  0  0  0  0
  7  8  1  0  0  0  0
  8  9  4  0  0  0  0
  9 10  4  0  0  0  0
 10 11  4  0  0  0  0
 11 12  1  0  0  0  0
 11 13  4  0  0  0  0
  8 14  4  0  0  0  0
 13 14  4  0  0  0  0
  7 15  4  0  0  0  0
 15 16  1  0  0  0  0
 16 17  2  0  0  0  0
 15 18  4  0  0  0  0
 17 19  1  0  0  0  0
 18 19  4  0  0  0  0
 19 20  4  0  0  0  0
 20 21  4  0  0  0  0
 21 22  4  0  0  0  0
 22 23  2  0  0  0  0
 23 24  4  0  0  0  0
 21 25  4  0  0  0  0
 24 25  4  0  0  0  0
 24 26  4  0  0  0  0
 26 27  1  0  0  0  0
 27 28  4  0  0  0  0
 28 29  4  0  0  0  0
 29 30  4  0  0  0  0
 30 31  1  0  0  0  0
 30 32  4  0  0  0  0
 27 33  4  0  0  0  0
 32 33  4  0  0  0  0
 26 34  4  0  0  0  0
 34 35  1  0  0  0  0
 35 36  2  0  0  0  0
  1 37  4  0  0  0  0
 36 37  1  0  0  0  0
 34 38  4  0  0  0  0
 37 38  4  0  0  0  0
  1 39  1  0  0  0  0
  3 40  1  0  0  0  0
  4 41  1  0  0  0  0
  6 42  1  0  0  0  0
  9 43  1  0  0  0  0
 10 44  1  0  0  0  0
 12 45  1  0  0  0  0
 12 46  1  0  0  0  0
 13 47  1  0  0  0  0
 14 48  1  0  0  0  0
 16 49  1  0  0  0  0
 17 50  1  0  0  0  0
 22 51  1  0  0  0  0
 23 52  1  0  0  0  0
 25 53  1  0  0  0  0
 28 54  1  0  0  0  0
 29 55  1  0  0  0  0
 31 56  1  0  0  0  0
 31 57  1  0  0  0  0
 32 58  1  0  0  0  0
 33 59  1  0  0  0  0
 35 60  1  0  0  0  0
 36 61  1  0  0  0  0
 62 63  4  0  0  0  0
 63 64  4  0  0  0  0
 64 65  2  0  0  0  0
 65 66  4  0  0  0  0
 63 67  4  0  0  0  0
 66 67  4  0  0  0  0
 66 68  4  0  0  0  0
 68 69  1  0  0  0  0
 69 70  4  0  0  0  0
 70 71  4  0  0  0  0
 71 72  4  0  0  0  0
 72 73  1  0  0  0  0
 72 74  4  0  0  0  0
 69 75  4  0  0  0  0
 74 75  4  0  0  0  0
 68 76  4  0  0  0  0
 76 77  1  0  0  0  0
 77 78  2  0  0  0  0
 76 79  4  0  0  0  0
 78 80  1  0  0  0  0
 79 80  4  0  0  0  0
 80 81  4  0  0  0  0
 81 82  4  0  0  0  0
 82 83  4  0  0  0  0
 83 84  2  0  0  0  0
 84 85  4  0  0  0  0
 82 86  4  0  0  0  0
 85 86  4  0  0  0  0
 85 87  4  0  0  0  0
 87 88  1  0  0  0  0
 88 89  4  0  0  0  0
 89 90  4  0  0  0  0
 90 91  4  0  0  0  0
 91 92  1  0  0  0  0
 91 93  4  0  0  0  0
 88 94  4  0  0  0  0
 93 94  4  0  0  0  0
 87 95  4  0  0  0  0
 95 96  1  0  0  0  0
 96 97  2  0  0  0  0
 62 98  4  0  0  0  0
 97 98  1  0  0  0  0
 95 99  4  0  0  0  0
 98 99  4  0  0  0  0
 62100  1  0  0  0  0
 64101  1  0  0  0  0
 65102  1  0  0  0  0
 67103  1  0  0  0  0
 70104  1  0  0  0  0
 71105  1  0  0  0  0
 73106  1  0  0  0  0
 73107  1  0  0  0  0
 74108  1  0  0  0  0
 75109  1  0  0  0  0
 77110  1  0  0  0  0
 78111  1  0  0  0  0
 83112  1  0  0  0  0
 84113  1  0  0  0  0
 86114  1  0  0  0  0
 89115  1  0  0  0  0
 90116  1  0  0  0  0
 92117  1  0  0  0  0
 92118  1  0  0  0  0
 93119  1  0  0  0  0
 94120  1  0  0  0  0
 96121  1  0  0  0  0
 97122  1  0  0  0  0
 20123  4  0  0  0  0
123124  3  0  0  0  0
124125  4  0  0  0  0
125126  3  0  0  0  0
126127  4  0  0  0  0
127128  3  0  0  0  0
128129  4  0  0  0  0
129130  3  0  0  0  0
131132  3  0  0  0  0
132133  4  0  0  0  0
133134  3  0  0  0  0
134135  4  0  0  0  0
135136  3  0  0  0  0
136137  4  0  0  0  0
137138  3  0  0  0  0
139140  3  0  0  0  0
140141  4  0  0  0  0
141142  3  0  0  0  0
142143  4  0  0  0  0
143144  3  0  0  0  0
144145  4  0  0  0  0
145146  3  0  0  0  0
147148  3  0  0  0  0
148149  4  0  0  0  0
149150  3  0  0  0  0
150151  4  0  0  0  0
151152  3  0  0  0  0
152153  4  0  0  0  0
 81154  4  0  0  0  0
153154  3  0  0  0  0
130155  4  0  0  0  0
155156  4  0  0  0  0
156157  4  0  0  0  0
157158  2  0  0  0  0
158159  4  0  0  0  0
156160  4  0  0  0  0
159160  4  0  0  0  0
159161  4  0  0  0  0
161162  1  0  0  0  0
162163  4  0  0  0  0
163164  4  0  0  0  0
164165  4  0  0  0  0
165166  1  0  0  0  0
165167  4  0  0  0  0
162168  4  0  0  0  0
167168  4  0  0  0  0
161169  4  0  0  0  0
169170  1  0  0  0  0
170171  2  0  0  0  0
169172  4  0  0  0  0
171173  1  0  0  0  0
172173  4  0  0  0  0
131174  4  0  0  0  0
173174  4  0  0  0  0
174175  4  0  0  0  0
175176  4  0  0  0  0
176177  2  0  0  0  0
177178  4  0  0  0  0
175179  4  0  0  0  0
178179  4  0  0  0  0
178180  4  0  0  0  0
180181  1  0  0  0  0
181182  4  0  0  0  0
182183  4  0  0  0  0
183184  4  0  0  0  0
184185  1  0  0  0  0
184186  4  0  0  0  0
181187  4  0  0  0  0
186187  4  0  0  0  0
180188  4  0  0  0  0
188189  1  0  0  0  0
189190  2  0  0  0  0
155191  4  0  0  0  0
190191  1  0  0  0  0
188192  4  0  0  0  0
191192  4  0  0  0  0
157193  1  0  0  0  0
158194  1  0  0  0  0
160195  1  0  0  0  0
163196  1  0  0  0  0
164197  1  0  0  0  0
166198  1  0  0  0  0
166199  1  0  0  0  0
167200  1  0  0  0  0
168201  1  0  0  0  0
170202  1  0  0  0  0
171203  1  0  0  0  0
176204  1  0  0  0  0
177205  1  0  0  0  0
179206  1  0  0  0  0
182207  1  0  0  0  0
183208  1  0  0  0  0
185209  1  0  0  0  0
185210  1  0  0  0  0
186211  1  0  0  0  0
187212  1  0  0  0  0
189213  1  0  0  0  0
190214  1  0  0  0  0
138215  4  0  0  0  0
215216  4  0  0  0  0
216217  4  0  0  0  0
217218  2  0  0  0  0
218219  4  0  0  0  0
216220  4  0  0  0  0
219220  4  0  0  0  0
219221  4  0  0  0  0
221222  1  0  0  0  0
222223  4  0  0  0  0
223224  4  0  0  0  0
224225  4  0  0  0  0
225226  1  0  0  0  0
225227  4  0  0  0  0
222228  4  0  0  0  0
227228  4  0  0  0  0
221229  4  0  0  0  0
229230  1  0  0  0  0
230231  2  0  0  0  0
229232  4  0  0  0  0
231233  1  0  0  0  0
232233  4  0  0  0  0
139234  4  0  0  0  0
233234  4  0  0  0  0
234235  4  0  0  0  0
235236  4  0  0  0  0
236237  2  0  0  0  0
237238  4  0  0  0  0
235239  4  0  0  0  0
238239  4  0  0  0  0
238240  4  0  0  0  0
240241  1  0  0  0  0
241242  4  0  0  0  0
242243  4  0  0  0  0
243244  4  0  0  0  0
244245  1  0  0  0  0
244246  4  0  0  0  0
241247  4  0  0  0  0
246247  4  0  0  0  0
240248  4  0  0  0  0
248249  1  0  0  0  0
249250  2  0  0  0  0
215251  4  0  0  0  0
250251  1  0  0  0  0
248252  4  0  0  0  0
251252  4  0  0  0  0
217253  1  0  0  0  0
218254  1  0  0  0  0
220255  1  0  0  0  0
223256  1  0  0  0  0
224257  1  0  0  0  0
226258  1  0  0  0  0
226259  1  0  0  0  0
227260  1  0  0  0  0
228261  1  0  0  0  0
230262  1  0  0  0  0
231263  1  0  0  0  0
236264  1  0  0  0  0
237265  1  0  0  0  0
239266  1  0  0  0  0
242267  1  0  0  0  0
243268  1  0  0  0  0
245269  1  0  0  0  0
245270  1  0  0  0  0
246271  1  0  0  0  0
247272  1  0  0  0  0
249273  1  0  0  0  0
250274  1  0  0  0  0
146275  4  0  0  0  0
275276  4  0  0  0  0
276277  4  0  0  0  0
277278  2  0  0  0  0
278279  4  0  0  0  0
276280  4  0  0  0  0
279280  4  0  0  0  0
279281  4  0  0  0  0
281282  1  0  0  0  0
282283  4  0  0  0  0
283284  4  0  0  0  0
284285  4  0  0  0  0
285286  1  0  0  0  0
285287  4  0  0  0  0
282288  4  0  0  0  0
287288  4  0  0  0  0
281289  4  0  0  0  0
289290  1  0  0  0  0
290291  2  0  0  0  0
289292  4  0  0  0  0
291293  1  0  0  0  0
292293  4  0  0  0  0
147294  4  0  0  0  0
293294  4  0  0  0  0
294295  4  0  0  0  0
295296  4  0  0  0  0
296297  2  0  0  0  0
297298  4  0  0  0  0
295299  4  0  0  0  0
298299  4  0  0  0  0
298300  4  0  0  0  0
300301  1  0  0  0  0
301302  4  0  0  0  0
302303  4  0  0  0  0
303304  4  0  0  0  0
304305  1  0  0  0  0
304306  4  0  0  0  0
301307  4  0  0  0  0
306307  4  0  0  0  0
300308  4  0  0  0  0
308309  1  0  0  0  0
309310  2  0  0  0  0
275311  4  0  0  0  0
310311  1  0  0  0  0
308312  4  0  0  0  0
311312  4  0  0  0  0
277313  1  0  0  0  0
278314  1  0  0  0  0
280315  1  0  0  0  0
283316  1  0  0  0  0
284317  1  0  0  0  0
286318  1  0  0  0  0
286319  1  0  0  0  0
287320  1  0  0  0  0
288321  1  0  0  0  0
290322  1  0  0  0  0
291323  1  0  0  0  0
296324  1  0  0  0  0
297325  1  0  0  0  0
299326  1  0  0  0  0
302327  1  0  0  0  0
303328  1  0  0  0  0
305329  1  0  0  0  0
305330  1  0  0  0  0
306331  1  0  0  0  0
307332  1  0  0  0  0
309333  1  0  0  0  0
310334  1  0  0  0  0
M  END
