508

C 99.725780 -0.034036 0.088022
C 100.454000 1.341928 0.166775
C 99.846691 2.563588 0.345143
C 100.869311 3.546422 0.298071
C 102.066781 2.890665 0.082995
N 101.806036 1.543399 0.051630
C 103.489622 3.559468 -0.119955
C 103.529020 5.025443 -0.323685
C 103.833369 5.876752 0.745577
C 103.862301 7.260456 0.558550
C 103.585801 7.800280 -0.702104
C 103.616595 9.220036 -0.897993
N 103.640320 10.369519 -1.062281
C 103.279105 6.952872 -1.772577
C 103.250881 5.568901 -1.581890
C 104.619895 2.802983 -0.143438
C 105.922988 3.383877 -0.395525
C 106.826415 2.411259 -0.379366
N 104.818013 1.457487 0.024342
C 106.149975 1.158537 -0.104874
C 106.821340 -0.021116 -0.019552
C 106.048194 -1.369112 0.307371
C 106.601894 -2.520538 0.834576
C 105.574580 -3.493694 0.907187
C 104.420886 -2.907604 0.431625
N 104.706329 -1.599020 0.125152
C 103.007806 -3.610452 0.277107
C 102.975426 -5.086230 0.190365
C 102.633066 -5.856840 1.308648
C 102.611666 -7.250016 1.223293
C 102.936941 -7.881384 0.017651
C 102.913277 -9.311685 -0.072567
N 102.895083 -10.470675 -0.146286
C 103.283595 -7.114804 -1.100982
C 103.301943 -5.721768 -1.012790
C 101.880461 -2.857951 0.192750
C 100.557063 -3.436587 0.037261
C 99.669735 -2.446406 -0.000151
C 100.392034 -1.203648 0.113056
N 101.714431 -1.501366 0.222523
H 98.646934 -0.032591 -0.012996
H 98.788731 2.729516 0.478194
H 100.741036 4.614540 0.386926
H 102.505436 0.810788 -0.038792
H 104.051886 5.442924 1.720153
H 104.102119 7.902473 1.401672
H 103.063375 7.353005 -2.758917
H 103.015490 4.899735 -2.406315
H 106.135919 4.421445 -0.581216
H 107.878940 2.553835 -0.543225
H 107.635006 -2.654618 1.117376
H 105.672846 -4.511246 1.249408
H 104.018425 -0.903417 -0.154398
H 102.378594 -5.353104 2.238961
H 102.340281 -7.828880 2.101824
H 103.541808 -7.586021 -2.045784
H 103.565562 -5.113395 -1.877129
H 100.325528 -4.483443 -0.035613
H 98.604447 -2.546304 -0.107373
C 220.989851 0.021169 0.080204
C 220.261632 -1.278810 0.537950
C 220.868940 -2.402892 1.048546
C 219.846320 -3.360144 1.276248
C 218.648850 -2.789902 0.887534
N 218.909595 -1.504332 0.483280
C 217.226009 -3.488758 0.878285
C 217.186612 -4.953651 1.089655
C 216.882263 -5.474556 2.353263
C 216.853330 -6.855775 2.557832
C 217.129830 -7.724440 1.496662
C 217.099036 -9.142753 1.702729
N 217.075312 -10.292650 1.864103
C 217.436526 -7.207619 0.232974
C 217.464751 -5.825126 0.031846
C 216.095736 -2.768546 0.645658
C 214.792643 -3.396597 0.564794
C 213.889216 -2.457743 0.310231
N 215.897619 -1.429377 0.433209
C 214.565657 -1.178066 0.226060
C 213.894291 -0.021116 -0.019552
C 214.667437 1.364649 -0.079811
C 214.113737 2.617189 0.106919
C 215.141051 3.572235 -0.093561
C 216.294745 2.877137 -0.387668
N 216.009302 1.534914 -0.318707
C 217.707826 3.509434 -0.731283
C 217.740206 4.903083 -1.224422
C 218.082565 5.953923 -0.364110
C 218.103965 7.268603 -0.832979
C 217.778690 7.540346 -2.166529
C 217.802355 8.889342 -2.650379
N 217.820549 9.982278 -3.043039
C 217.432036 6.493281 -3.028295
C 217.413688 5.179522 -2.556740
C 218.835171 2.763103 -0.603361
C 220.158568 3.275805 -0.913416
C 221.045897 2.314178 -0.674393
C 220.323598 1.151733 -0.220537
N 219.001201 1.468140 -0.198049
H 222.068698 -0.008271 -0.016441
H 221.926900 -2.525348 1.222441
H 219.974595 -4.361579 1.658214
H 218.210195 -0.825644 0.192976
H 216.663745 -4.787160 3.169040
H 216.613512 -7.238416 3.546077
H 217.652256 -7.865912 -0.603461
H 217.700141 -5.411213 -0.945975
H 214.579712 -4.444922 0.674528
H 212.836692 -2.640213 0.192408
H 213.080626 2.824526 0.341364
H 215.042786 4.644799 -0.047363
H 216.697207 0.789040 -0.394101
H 218.337038 5.728336 0.669496
H 218.375350 8.068660 -0.149745
H 217.173823 6.683605 -4.066791
H 217.150070 4.355058 -3.218146
H 220.390104 4.261252 -1.274125
H 222.111185 2.380372 -0.805138
C 113.035943 -0.020013 -0.011063
C 111.827004 -0.033468 -0.019510
C 110.405475 -0.024649 -0.031493
C 109.193805 -0.017210 -0.020630
C 114.452547 -0.026688 -0.010529
C 115.673243 -0.017210 -0.020630
C 129.011182 -0.020013 -0.011063
C 127.802242 -0.033468 -0.019510
C 126.380714 -0.024649 -0.031493
C 125.169044 -0.017210 -0.020630
C 130.427786 -0.026688 -0.010529
C 131.648482 -0.017210 -0.020630
C 144.986421 -0.020013 -0.011063
C 143.777481 -0.033468 -0.019510
C 142.355952 -0.024649 -0.031493
C 141.144283 -0.017210 -0.020630
C 146.403025 -0.026688 -0.010529
C 147.623721 -0.017210 -0.020630
C 160.961660 -0.020013 -0.011063
C 159.752720 -0.033468 -0.019510
C 158.331191 -0.024649 -0.031493
C 157.119522 -0.017210 -0.020630
C 162.378264 -0.026688 -0.010529
C 163.598960 -0.017210 -0.020630
C 176.936898 -0.020013 -0.011063
C 175.727959 -0.033468 -0.019510
C 174.306430 -0.024649 -0.031493
C 173.094761 -0.017210 -0.020630
C 178.353503 -0.026688 -0.010529
C 179.574199 -0.017210 -0.020630
C 192.912137 -0.020013 -0.011063
C 191.703198 -0.033468 -0.019510
C 190.281669 -0.024649 -0.031493
C 189.070000 -0.017210 -0.020630
C 194.328742 -0.026688 -0.010529
C 195.549438 -0.017210 -0.020630
C 208.887376 -0.020013 -0.011063
C 207.678437 -0.033468 -0.019510
C 206.256908 -0.024649 -0.031493
C 205.045239 -0.017210 -0.020630
C 210.303981 -0.026688 -0.010529
C 211.524677 -0.017210 -0.020630
C 116.840666 0.009237 0.009120
C 117.635900 1.160968 -0.732617
C 117.134735 2.381335 -1.137377
C 118.173296 3.057061 -1.828096
C 119.277075 2.230205 -1.818071
N 118.962671 1.114774 -1.083314
C 120.663904 2.503935 -2.529318
C 120.651771 3.349320 -3.743682
C 120.175110 2.830484 -4.953118
C 120.148489 3.627169 -6.099958
C 120.597713 4.951323 -6.041477
C 120.571636 5.770409 -7.217451
N 120.550348 6.436390 -8.169482
C 121.071819 5.475833 -4.833638
C 121.096185 4.676440 -3.688897
C 121.800281 1.931676 -2.052977
C 123.085701 2.102855 -2.698601
C 123.994782 1.422795 -2.008348
N 122.010119 1.120654 -0.973021
C 123.334295 0.783098 -0.888649
C 123.998621 0.009237 0.009120
C 123.203404 -0.664195 1.202088
C 123.704656 -0.997418 2.443856
C 122.666100 -1.647622 3.158655
C 121.562219 -1.685449 2.332744
N 121.876570 -1.016752 1.176487
C 120.175394 -2.379577 2.647436
C 120.187713 -3.543022 3.561645
C 120.666017 -4.779934 3.113969
C 120.692846 -5.878855 3.975525
C 120.242210 -5.744490 5.293657
C 120.268450 -6.871258 6.179206
N 120.289814 -7.783380 6.898856
C 119.766515 -4.508831 5.747127
C 119.741972 -3.412140 4.882978
C 119.038988 -1.937295 2.048511
C 117.753617 -2.572034 2.256767
C 116.844527 -1.922551 1.537685
C 117.504963 -0.841850 0.834063
N 118.829096 -0.906247 1.176165
H 116.129141 2.738448 -0.974202
H 118.115399 4.027744 -2.296796
H 119.620207 0.392333 -0.804463
H 119.827680 1.799352 -4.987183
H 119.775804 3.202677 -7.028455
H 121.425280 6.501477 -4.769184
H 121.464535 5.071805 -2.743796
H 123.281467 2.671967 -3.589442
H 125.038879 1.365319 -2.256783
H 124.710298 -0.813932 2.790779
H 122.724041 -2.059221 4.154905
H 121.218957 -0.780111 0.439240
H 121.014576 -4.873126 2.086875
H 121.066802 -6.829945 3.605683
H 119.411942 -4.385639 6.767001
H 119.372425 -2.446132 5.222798
H 117.557899 -3.428382 2.876579
H 115.800475 -2.174074 1.494581
C 132.815905 0.009237 0.009120
C 133.611139 1.160968 -0.732617
C 133.109974 2.381335 -1.137377
C 134.148535 3.057061 -1.828096
C 135.252314 2.230205 -1.818071
N 134.937910 1.114774 -1.083314
C 136.639143 2.503935 -2.529318
C 136.627010 3.349320 -3.743682
C 136.150349 2.830484 -4.953118
C 136.123728 3.627169 -6.099958
C 136.572952 4.951323 -6.041477
C 136.546875 5.770409 -7.217451
N 136.525586 6.436390 -8.169482
C 137.047058 5.475833 -4.833638
C 137.071423 4.676440 -3.688897
C 137.775520 1.931676 -2.052977
C 139.060940 2.102855 -2.698601
C 139.970021 1.422795 -2.008348
N 137.985358 1.120654 -0.973021
C 139.309534 0.783098 -0.888649
C 139.973860 0.009237 0.009120
C 139.178643 -0.664195 1.202088
C 139.679894 -0.997418 2.443856
C 138.641339 -1.647622 3.158655
C 137.537458 -1.685449 2.332744
N 137.851809 -1.016752 1.176487
C 136.150633 -2.379577 2.647436
C 136.162952 -3.543022 3.561645
C 136.641255 -4.779934 3.113969
C 136.668085 -5.878855 3.975525
C 136.217449 -5.744490 5.293657
C 136.243689 -6.871258 6.179206
N 136.265053 -7.783380 6.898856
C 135.741754 -4.508831 5.747127
C 135.717211 -3.412140 4.882978
C 135.014226 -1.937295 2.048511
C 133.728856 -2.572034 2.256767
C 132.819766 -1.922551 1.537685
C 133.480202 -0.841850 0.834063
N 134.804335 -0.906247 1.176165
H 132.104380 2.738448 -0.974202
H 134.090638 4.027744 -2.296796
H 135.595446 0.392333 -0.804463
H 135.802919 1.799352 -4.987183
H 135.751043 3.202677 -7.028455
H 137.400519 6.501477 -4.769184
H 137.439774 5.071805 -2.743796
H 139.256706 2.671967 -3.589442
H 141.014118 1.365319 -2.256783
H 140.685537 -0.813932 2.790779
H 138.699280 -2.059221 4.154905
H 137.194196 -0.780111 0.439240
H 136.989815 -4.873126 2.086875
H 137.042041 -6.829945 3.605683
H 135.387181 -4.385639 6.767001
H 135.347664 -2.446132 5.222798
H 133.533138 -3.428382 2.876579
H 131.775714 -2.174074 1.494581
C 148.791144 0.009237 0.009120
C 149.586378 1.160968 -0.732617
C 149.085212 2.381335 -1.137377
C 150.123774 3.057061 -1.828096
C 151.227553 2.230205 -1.818071
N 150.913148 1.114774 -1.083314
C 152.614382 2.503935 -2.529318
C 152.602249 3.349320 -3.743682
C 152.125588 2.830484 -4.953118
C 152.098967 3.627169 -6.099958
C 152.548191 4.951323 -6.041477
C 152.522114 5.770409 -7.217451
N 152.500825 6.436390 -8.169482
C 153.022297 5.475833 -4.833638
C 153.046662 4.676440 -3.688897
C 153.750759 1.931676 -2.052977
C 155.036179 2.102855 -2.698601
C 155.945260 1.422795 -2.008348
N 153.960597 1.120654 -0.973021
C 155.284773 0.783098 -0.888649
C 155.949098 0.009237 0.009120
C 155.153882 -0.664195 1.202088
C 155.655133 -0.997418 2.443856
C 154.616578 -1.647622 3.158655
C 153.512697 -1.685449 2.332744
N 153.827048 -1.016752 1.176487
C 152.125872 -2.379577 2.647436
C 152.138191 -3.543022 3.561645
C 152.616494 -4.779934 3.113969
C 152.643324 -5.878855 3.975525
C 152.192688 -5.744490 5.293657
C 152.218928 -6.871258 6.179206
N 152.240292 -7.783380 6.898856
C 151.716993 -4.508831 5.747127
C 151.692450 -3.412140 4.882978
C 150.989465 -1.937295 2.048511
C 149.704095 -2.572034 2.256767
C 148.795005 -1.922551 1.537685
C 149.455441 -0.841850 0.834063
N 150.779574 -0.906247 1.176165
H 148.079619 2.738448 -0.974202
H 150.065877 4.027744 -2.296796
H 151.570685 0.392333 -0.804463
H 151.778158 1.799352 -4.987183
H 151.726282 3.202677 -7.028455
H 153.375758 6.501477 -4.769184
H 153.415013 5.071805 -2.743796
H 155.231945 2.671967 -3.589442
H 156.989357 1.365319 -2.256783
H 156.660776 -0.813932 2.790779
H 154.674519 -2.059221 4.154905
H 153.169435 -0.780111 0.439240
H 152.965054 -4.873126 2.086875
H 153.017280 -6.829945 3.605683
H 151.362420 -4.385639 6.767001
H 151.322903 -2.446132 5.222798
H 149.508377 -3.428382 2.876579
H 147.750953 -2.174074 1.494581
C 164.766383 0.009237 0.009120
C 165.561617 1.160968 -0.732617
C 165.060451 2.381335 -1.137377
C 166.099013 3.057061 -1.828096
C 167.202791 2.230205 -1.818071
N 166.888387 1.114774 -1.083314
C 168.589621 2.503935 -2.529318
C 168.577488 3.349320 -3.743682
C 168.100827 2.830484 -4.953118
C 168.074206 3.627169 -6.099958
C 168.523430 4.951323 -6.041477
C 168.497353 5.770409 -7.217451
N 168.476064 6.436390 -8.169482
C 168.997536 5.475833 -4.833638
C 169.021901 4.676440 -3.688897
C 169.725998 1.931676 -2.052977
C 171.011418 2.102855 -2.698601
C 171.920499 1.422795 -2.008348
N 169.935836 1.120654 -0.973021
C 171.260012 0.783098 -0.888649
C 171.924337 0.009237 0.009120
C 171.129120 -0.664195 1.202088
C 171.630372 -0.997418 2.443856
C 170.591817 -1.647622 3.158655
C 169.487936 -1.685449 2.332744
N 169.802287 -1.016752 1.176487
C 168.101111 -2.379577 2.647436
C 168.113430 -3.543022 3.561645
C 168.591733 -4.779934 3.113969
C 168.618562 -5.878855 3.975525
C 168.167927 -5.744490 5.293657
C 168.194167 -6.871258 6.179206
N 168.215531 -7.783380 6.898856
C 167.692231 -4.508831 5.747127
C 167.667689 -3.412140 4.882978
C 166.964704 -1.937295 2.048511
C 165.679334 -2.572034 2.256767
C 164.770243 -1.922551 1.537685
C 165.430680 -0.841850 0.834063
N 166.754813 -0.906247 1.176165
H 164.054858 2.738448 -0.974202
H 166.041115 4.027744 -2.296796
H 167.545924 0.392333 -0.804463
H 167.753397 1.799352 -4.987183
H 167.701521 3.202677 -7.028455
H 169.350997 6.501477 -4.769184
H 169.390252 5.071805 -2.743796
H 171.207184 2.671967 -3.589442
H 172.964595 1.365319 -2.256783
H 172.636015 -0.813932 2.790779
H 170.649758 -2.059221 4.154905
H 169.144674 -0.780111 0.439240
H 168.940293 -4.873126 2.086875
H 168.992519 -6.829945 3.605683
H 167.337659 -4.385639 6.767001
H 167.298142 -2.446132 5.222798
H 165.483616 -3.428382 2.876579
H 163.726192 -2.174074 1.494581
C 180.741622 0.009237 0.009120
C 181.536856 1.160968 -0.732617
C 181.035690 2.381335 -1.137377
C 182.074252 3.057061 -1.828096
C 183.178030 2.230205 -1.818071
N 182.863626 1.114774 -1.083314
C 184.564860 2.503935 -2.529318
C 184.552727 3.349320 -3.743682
C 184.076065 2.830484 -4.953118
C 184.049445 3.627169 -6.099958
C 184.498669 4.951323 -6.041477
C 184.472592 5.770409 -7.217451
N 184.451303 6.436390 -8.169482
C 184.972775 5.475833 -4.833638
C 184.997140 4.676440 -3.688897
C 185.701237 1.931676 -2.052977
C 186.986657 2.102855 -2.698601
C 187.895738 1.422795 -2.008348
N 185.911075 1.120654 -0.973021
C 187.235251 0.783098 -0.888649
C 187.899576 0.009237 0.009120
C 187.104359 -0.664195 1.202088
C 187.605611 -0.997418 2.443856
C 186.567056 -1.647622 3.158655
C 185.463175 -1.685449 2.332744
N 185.777526 -1.016752 1.176487
C 184.076350 -2.379577 2.647436
C 184.088669 -3.543022 3.561645
C 184.566972 -4.779934 3.113969
C 184.593801 -5.878855 3.975525
C 184.143166 -5.744490 5.293657
C 184.169406 -6.871258 6.179206
N 184.190770 -7.783380 6.898856
C 183.667470 -4.508831 5.747127
C 183.642928 -3.412140 4.882978
C 182.939943 -1.937295 2.048511
C 181.654573 -2.572034 2.256767
C 180.745482 -1.922551 1.537685
C 181.405918 -0.841850 0.834063
N 182.730052 -0.906247 1.176165
H 180.030097 2.738448 -0.974202
H 182.016354 4.027744 -2.296796
H 183.521163 0.392333 -0.804463
H 183.728636 1.799352 -4.987183
H 183.676760 3.202677 -7.028455
H 185.326236 6.501477 -4.769184
H 185.365491 5.071805 -2.743796
H 187.182423 2.671967 -3.589442
H 188.939834 1.365319 -2.256783
H 188.611254 -0.813932 2.790779
H 186.624997 -2.059221 4.154905
H 185.119913 -0.780111 0.439240
H 184.915532 -4.873126 2.086875
H 184.967757 -6.829945 3.605683
H 183.312898 -4.385639 6.767001
H 183.273381 -2.446132 5.222798
H 181.458855 -3.428382 2.876579
H 179.701431 -2.174074 1.494581
C 196.716861 0.009237 0.009120
C 197.512095 1.160968 -0.732617
C 197.010929 2.381335 -1.137377
C 198.049491 3.057061 -1.828096
C 199.153269 2.230205 -1.818071
N 198.838865 1.114774 -1.083314
C 200.540099 2.503935 -2.529318
C 200.527966 3.349320 -3.743682
C 200.051304 2.830484 -4.953118
C 200.024684 3.627169 -6.099958
C 200.473908 4.951323 -6.041477
C 200.447831 5.770409 -7.217451
N 200.426542 6.436390 -8.169482
C 200.948014 5.475833 -4.833638
C 200.972379 4.676440 -3.688897
C 201.676475 1.931676 -2.052977
C 202.961896 2.102855 -2.698601
C 203.870977 1.422795 -2.008348
N 201.886314 1.120654 -0.973021
C 203.210490 0.783098 -0.888649
C 203.874815 0.009237 0.009120
C 203.079598 -0.664195 1.202088
C 203.580850 -0.997418 2.443856
C 202.542295 -1.647622 3.158655
C 201.438414 -1.685449 2.332744
N 201.752765 -1.016752 1.176487
C 200.051589 -2.379577 2.647436
C 200.063908 -3.543022 3.561645
C 200.542211 -4.779934 3.113969
C 200.569040 -5.878855 3.975525
C 200.118405 -5.744490 5.293657
C 200.144645 -6.871258 6.179206
N 200.166009 -7.783380 6.898856
C 199.642709 -4.508831 5.747127
C 199.618167 -3.412140 4.882978
C 198.915182 -1.937295 2.048511
C 197.629812 -2.572034 2.256767
C 196.720721 -1.922551 1.537685
C 197.381157 -0.841850 0.834063
N 198.705291 -0.906247 1.176165
H 196.005336 2.738448 -0.974202
H 197.991593 4.027744 -2.296796
H 199.496402 0.392333 -0.804463
H 199.703875 1.799352 -4.987183
H 199.651999 3.202677 -7.028455
H 201.301475 6.501477 -4.769184
H 201.340730 5.071805 -2.743796
H 203.157662 2.671967 -3.589442
H 204.915073 1.365319 -2.256783
H 204.586493 -0.813932 2.790779
H 202.600236 -2.059221 4.154905
H 201.095152 -0.780111 0.439240
H 200.890771 -4.873126 2.086875
H 200.942996 -6.829945 3.605683
H 199.288137 -4.385639 6.767001
H 199.248620 -2.446132 5.222798
H 197.434094 -3.428382 2.876579
H 195.676670 -2.174074 1.494581
