 xtb: 6.5.1 (b24c23e)
          07302209513D

264303  0     0  0            999 V2000
   46.0300    0.0030   -0.0545 Cu  0  0  0  0  0  0  0  0  0  0  0  0
   42.6246    0.0375   -0.1317 C   0  0  0  0  0  0  0  0  0  0  0  0
   43.2603    1.2690   -0.0882 C   0  0  0  0  0  0  0  0  0  0  0  0
   42.5852    2.5341   -0.0360 C   0  0  0  0  0  0  0  0  0  0  0  0
   43.5440    3.4917    0.0110 C   0  0  0  0  0  0  0  0  0  0  0  0
   44.8150    2.8201   -0.0212 C   0  0  0  0  0  0  0  0  0  0  0  0
   44.6112    1.4710   -0.0728 N   0  0  0  0  0  0  0  0  0  0  0  0
   46.0594    3.4530    0.0224 C   0  0  0  0  0  0  0  0  0  0  0  0
   46.0714    4.9382    0.0577 C   0  0  0  0  0  0  0  0  0  0  0  0
   45.5472    5.6680   -1.0092 C   0  0  0  0  0  0  0  0  0  0  0  0
   45.5593    7.0576   -0.9761 C   0  0  0  0  0  0  0  0  0  0  0  0
   45.0593    7.7767   -2.0107 O   0  0  0  0  0  0  0  0  0  0  0  0
   46.0894    7.7221    0.1310 C   0  0  0  0  0  0  0  0  0  0  0  0
   46.0836    9.0925    0.1378 O   0  0  0  0  0  0  0  0  0  0  0  0
   46.6091    6.9931    1.1975 C   0  0  0  0  0  0  0  0  0  0  0  0
   47.1073    7.7148    2.2505 O   0  0  0  0  0  0  0  0  0  0  0  0
   46.6063    5.6041    1.1636 C   0  0  0  0  0  0  0  0  0  0  0  0
   47.2918    2.7970    0.0357 C   0  0  0  0  0  0  0  0  0  0  0  0
   48.5701    3.4499    0.0286 C   0  0  0  0  0  0  0  0  0  0  0  0
   49.5155    2.4759    0.0312 C   0  0  0  0  0  0  0  0  0  0  0  0
   47.4795    1.4396    0.0296 N   0  0  0  0  0  0  0  0  0  0  0  0
   48.8230    1.2227    0.0315 C   0  0  0  0  0  0  0  0  0  0  0  0
   49.4584   -0.0319    0.0197 C   0  0  0  0  0  0  0  0  0  0  0  0
   48.7989   -1.2733   -0.0143 C   0  0  0  0  0  0  0  0  0  0  0  0
   49.4673   -2.5390   -0.0553 C   0  0  0  0  0  0  0  0  0  0  0  0
   48.5038   -3.4936   -0.1009 C   0  0  0  0  0  0  0  0  0  0  0  0
   47.2380   -2.8166   -0.0794 C   0  0  0  0  0  0  0  0  0  0  0  0
   47.4515   -1.4636   -0.0330 N   0  0  0  0  0  0  0  0  0  0  0  0
   45.9937   -3.4471   -0.1323 C   0  0  0  0  0  0  0  0  0  0  0  0
   45.9767   -4.9323   -0.1700 C   0  0  0  0  0  0  0  0  0  0  0  0
   46.4857   -5.6676    0.9002 C   0  0  0  0  0  0  0  0  0  0  0  0
   46.4634   -7.0571    0.8646 C   0  0  0  0  0  0  0  0  0  0  0  0
   46.9481   -7.7817    1.9026 O   0  0  0  0  0  0  0  0  0  0  0  0
   45.9375   -7.7159   -0.2479 C   0  0  0  0  0  0  0  0  0  0  0  0
   45.9318   -9.0864   -0.2566 O   0  0  0  0  0  0  0  0  0  0  0  0
   45.4328   -6.9813   -1.3176 C   0  0  0  0  0  0  0  0  0  0  0  0
   44.9366   -7.6973   -2.3757 O   0  0  0  0  0  0  0  0  0  0  0  0
   45.4465   -5.5925   -1.2817 C   0  0  0  0  0  0  0  0  0  0  0  0
   44.7615   -2.7888   -0.1547 C   0  0  0  0  0  0  0  0  0  0  0  0
   43.4780   -3.4365   -0.1614 C   0  0  0  0  0  0  0  0  0  0  0  0
   42.5375   -2.4593   -0.1652 C   0  0  0  0  0  0  0  0  0  0  0  0
   43.2367   -1.2067   -0.1517 C   0  0  0  0  0  0  0  0  0  0  0  0
   44.5834   -1.4353   -0.1425 N   0  0  0  0  0  0  0  0  0  0  0  0
   41.5395    0.0481   -0.1404 H   0  0  0  0  0  0  0  0  0  0  0  0
   41.5138    2.6585   -0.0296 H   0  0  0  0  0  0  0  0  0  0  0  0
   43.4097    4.5596    0.0731 H   0  0  0  0  0  0  0  0  0  0  0  0
   45.1450    5.1628   -1.8778 H   0  0  0  0  0  0  0  0  0  0  0  0
   45.1587    8.7203   -1.8021 H   0  0  0  0  0  0  0  0  0  0  0  0
   46.4817    9.3886    0.9718 H   0  0  0  0  0  0  0  0  0  0  0  0
   47.4412    7.1283    2.9419 H   0  0  0  0  0  0  0  0  0  0  0  0
   47.0008    5.0429    2.0025 H   0  0  0  0  0  0  0  0  0  0  0  0
   48.7216    4.5170    0.0090 H   0  0  0  0  0  0  0  0  0  0  0  0
   50.5880    2.5868    0.0258 H   0  0  0  0  0  0  0  0  0  0  0  0
   50.5376   -2.6701   -0.0553 H   0  0  0  0  0  0  0  0  0  0  0  0
   48.6348   -4.5621   -0.1557 H   0  0  0  0  0  0  0  0  0  0  0  0
   46.8837   -5.1669    1.7733 H   0  0  0  0  0  0  0  0  0  0  0  0
   46.8443   -8.7241    1.6911 H   0  0  0  0  0  0  0  0  0  0  0  0
   45.5360   -9.3778   -1.0933 H   0  0  0  0  0  0  0  0  0  0  0  0
   44.6112   -7.1066   -3.0675 H   0  0  0  0  0  0  0  0  0  0  0  0
   45.0635   -5.0271   -2.1232 H   0  0  0  0  0  0  0  0  0  0  0  0
   43.3225   -4.5034   -0.1505 H   0  0  0  0  0  0  0  0  0  0  0  0
   41.4638   -2.5635   -0.1688 H   0  0  0  0  0  0  0  0  0  0  0  0
   94.1535   -0.0535   -0.0379 Cu  0  0  0  0  0  0  0  0  0  0  0  0
   97.5579   -0.0815   -0.1417 C   0  0  0  0  0  0  0  0  0  0  0  0
   96.9205   -1.3093   -0.2342 C   0  0  0  0  0  0  0  0  0  0  0  0
   97.5941   -2.5725   -0.3305 C   0  0  0  0  0  0  0  0  0  0  0  0
   96.6343   -3.5286   -0.3867 C   0  0  0  0  0  0  0  0  0  0  0  0
   95.3642   -2.8569   -0.3343 C   0  0  0  0  0  0  0  0  0  0  0  0
   95.5694   -1.5107   -0.2333 N   0  0  0  0  0  0  0  0  0  0  0  0
   94.1192   -3.4899   -0.3553 C   0  0  0  0  0  0  0  0  0  0  0  0
   94.1048   -4.9695   -0.4883 C   0  0  0  0  0  0  0  0  0  0  0  0
   94.6232   -5.5753   -1.6328 C   0  0  0  0  0  0  0  0  0  0  0  0
   94.6084   -6.9598   -1.7563 C   0  0  0  0  0  0  0  0  0  0  0  0
   95.1029   -7.5586   -2.8673 O   0  0  0  0  0  0  0  0  0  0  0  0
   94.0811   -7.7439   -0.7290 C   0  0  0  0  0  0  0  0  0  0  0  0
   94.0842   -9.1064   -0.8765 O   0  0  0  0  0  0  0  0  0  0  0  0
   93.5668   -7.1388    0.4148 C   0  0  0  0  0  0  0  0  0  0  0  0
   93.0709   -7.9735    1.3819 O   0  0  0  0  0  0  0  0  0  0  0  0
   93.5727   -5.7549    0.5376 C   0  0  0  0  0  0  0  0  0  0  0  0
   92.8882   -2.8384   -0.2597 C   0  0  0  0  0  0  0  0  0  0  0  0
   91.6088   -3.4849   -0.3338 C   0  0  0  0  0  0  0  0  0  0  0  0
   90.6651   -2.5168   -0.2136 C   0  0  0  0  0  0  0  0  0  0  0  0
   92.7028   -1.4890   -0.1089 N   0  0  0  0  0  0  0  0  0  0  0  0
   91.3596   -1.2727   -0.0737 C   0  0  0  0  0  0  0  0  0  0  0  0
   90.7260   -0.0247    0.0627 C   0  0  0  0  0  0  0  0  0  0  0  0
   91.3873    1.2115    0.1683 C   0  0  0  0  0  0  0  0  0  0  0  0
   90.7205    2.4739    0.2790 C   0  0  0  0  0  0  0  0  0  0  0  0
   91.6851    3.4266    0.3370 C   0  0  0  0  0  0  0  0  0  0  0  0
   92.9499    2.7509    0.2704 C   0  0  0  0  0  0  0  0  0  0  0  0
   92.7349    1.4016    0.1618 N   0  0  0  0  0  0  0  0  0  0  0  0
   94.1945    3.3827    0.2805 C   0  0  0  0  0  0  0  0  0  0  0  0
   94.2126    4.8623    0.4155 C   0  0  0  0  0  0  0  0  0  0  0  0
   93.7153    5.4670    1.5697 C   0  0  0  0  0  0  0  0  0  0  0  0
   93.7371    6.8512    1.6963 C   0  0  0  0  0  0  0  0  0  0  0  0
   93.2636    7.4487    2.8169 O   0  0  0  0  0  0  0  0  0  0  0  0
   94.2505    7.6359    0.6625 C   0  0  0  0  0  0  0  0  0  0  0  0
   94.2556    8.9979    0.8137 O   0  0  0  0  0  0  0  0  0  0  0  0
   94.7434    7.0318   -0.4912 C   0  0  0  0  0  0  0  0  0  0  0  0
   95.2274    7.8671   -1.4639 O   0  0  0  0  0  0  0  0  0  0  0  0
   94.7306    5.6482   -0.6173 C   0  0  0  0  0  0  0  0  0  0  0  0
   95.4252    2.7305    0.1725 C   0  0  0  0  0  0  0  0  0  0  0  0
   96.7095    3.3739    0.2291 C   0  0  0  0  0  0  0  0  0  0  0  0
   97.6484    2.4029    0.1072 C   0  0  0  0  0  0  0  0  0  0  0  0
   96.9475    1.1573   -0.0162 C   0  0  0  0  0  0  0  0  0  0  0  0
   95.6012    1.3841    0.0292 N   0  0  0  0  0  0  0  0  0  0  0  0
   98.6429   -0.0918   -0.1589 H   0  0  0  0  0  0  0  0  0  0  0  0
   98.6654   -2.6976   -0.3451 H   0  0  0  0  0  0  0  0  0  0  0  0
   96.7674   -4.5967   -0.4475 H   0  0  0  0  0  0  0  0  0  0  0  0
   95.0227   -4.9762   -2.4408 H   0  0  0  0  0  0  0  0  0  0  0  0
   95.0018   -8.5195   -2.7663 H   0  0  0  0  0  0  0  0  0  0  0  0
   93.6880   -9.4937   -0.0798 H   0  0  0  0  0  0  0  0  0  0  0  0
   92.7382   -7.4676    2.1347 H   0  0  0  0  0  0  0  0  0  0  0  0
   93.1826   -5.2912    1.4361 H   0  0  0  0  0  0  0  0  0  0  0  0
   91.4554   -4.5426   -0.4749 H   0  0  0  0  0  0  0  0  0  0  0  0
   89.5924   -2.6253   -0.2250 H   0  0  0  0  0  0  0  0  0  0  0  0
   89.6505    2.6048    0.3022 H   0  0  0  0  0  0  0  0  0  0  0  0
   91.5555    4.4944    0.4074 H   0  0  0  0  0  0  0  0  0  0  0  0
   93.3266    4.8672    2.3825 H   0  0  0  0  0  0  0  0  0  0  0  0
   93.3625    8.4098    2.7152 H   0  0  0  0  0  0  0  0  0  0  0  0
   94.6395    9.3862    0.0115 H   0  0  0  0  0  0  0  0  0  0  0  0
   95.5417    7.3621   -2.2252 H   0  0  0  0  0  0  0  0  0  0  0  0
   95.1043    5.1853   -1.5231 H   0  0  0  0  0  0  0  0  0  0  0  0
   96.8664    4.4327    0.3594 H   0  0  0  0  0  0  0  0  0  0  0  0
   98.7222    2.5061    0.1070 H   0  0  0  0  0  0  0  0  0  0  0  0
   54.6611   -0.0581    0.0313 C   0  0  0  0  0  0  0  0  0  0  0  0
   53.4327   -0.0573    0.0312 C   0  0  0  0  0  0  0  0  0  0  0  0
   52.0881   -0.0481    0.0355 C   0  0  0  0  0  0  0  0  0  0  0  0
   50.8642   -0.0445    0.0283 C   0  0  0  0  0  0  0  0  0  0  0  0
   56.0056   -0.0562    0.0205 C   0  0  0  0  0  0  0  0  0  0  0  0
   57.2296   -0.0565    0.0103 C   0  0  0  0  0  0  0  0  0  0  0  0
   70.7074   -0.0157   -0.0644 C   0  0  0  0  0  0  0  0  0  0  0  0
   69.4788   -0.0221   -0.0643 C   0  0  0  0  0  0  0  0  0  0  0  0
   68.1347   -0.0266   -0.0629 C   0  0  0  0  0  0  0  0  0  0  0  0
   66.9105   -0.0315   -0.0591 C   0  0  0  0  0  0  0  0  0  0  0  0
   72.0515   -0.0108   -0.0637 C   0  0  0  0  0  0  0  0  0  0  0  0
   73.2757   -0.0058   -0.0619 C   0  0  0  0  0  0  0  0  0  0  0  0
   86.7519    0.0028    0.0854 C   0  0  0  0  0  0  0  0  0  0  0  0
   85.5236    0.0089    0.0807 C   0  0  0  0  0  0  0  0  0  0  0  0
   84.1793    0.0104    0.0663 C   0  0  0  0  0  0  0  0  0  0  0  0
   82.9554    0.0097    0.0491 C   0  0  0  0  0  0  0  0  0  0  0  0
   88.0965   -0.0052    0.0844 C   0  0  0  0  0  0  0  0  0  0  0  0
   89.3203   -0.0116    0.0788 C   0  0  0  0  0  0  0  0  0  0  0  0
   62.0703   -0.0430   -0.0397 Cu  0  0  0  0  0  0  0  0  0  0  0  0
   58.6346   -0.0524   -0.0069 C   0  0  0  0  0  0  0  0  0  0  0  0
   59.2814    1.1918    0.1090 C   0  0  0  0  0  0  0  0  0  0  0  0
   58.6027    2.4381    0.2960 C   0  0  0  0  0  0  0  0  0  0  0  0
   59.5567    3.4027    0.3508 C   0  0  0  0  0  0  0  0  0  0  0  0
   60.8247    2.7507    0.1887 C   0  0  0  0  0  0  0  0  0  0  0  0
   60.6241    1.4026    0.0516 N   0  0  0  0  0  0  0  0  0  0  0  0
   62.0633    3.3970    0.1903 C   0  0  0  0  0  0  0  0  0  0  0  0
   62.0596    4.8783    0.2842 C   0  0  0  0  0  0  0  0  0  0  0  0
   62.6779    5.5181    1.3590 C   0  0  0  0  0  0  0  0  0  0  0  0
   62.6795    6.9065    1.4621 C   0  0  0  0  0  0  0  0  0  0  0  0
   63.2699    7.5397    2.5093 O   0  0  0  0  0  0  0  0  0  0  0  0
   62.0623    7.6764    0.4710 C   0  0  0  0  0  0  0  0  0  0  0  0
   62.0517    9.0331    0.5397 O   0  0  0  0  0  0  0  0  0  0  0  0
   61.4491    7.0285   -0.6046 C   0  0  0  0  0  0  0  0  0  0  0  0
   60.8669    7.8409   -1.5436 O   0  0  0  0  0  0  0  0  0  0  0  0
   61.4376    5.6442   -0.7036 C   0  0  0  0  0  0  0  0  0  0  0  0
   63.3045    2.7612    0.1110 C   0  0  0  0  0  0  0  0  0  0  0  0
   64.5706    3.4333    0.0436 C   0  0  0  0  0  0  0  0  0  0  0  0
   65.5284    2.4733   -0.0211 C   0  0  0  0  0  0  0  0  0  0  0  0
   63.5102    1.4073    0.0707 N   0  0  0  0  0  0  0  0  0  0  0  0
   64.8540    1.2108   -0.0049 C   0  0  0  0  0  0  0  0  0  0  0  0
   65.5057   -0.0354   -0.0547 C   0  0  0  0  0  0  0  0  0  0  0  0
   64.8596   -1.2839   -0.1041 C   0  0  0  0  0  0  0  0  0  0  0  0
   65.5397   -2.5440   -0.1084 C   0  0  0  0  0  0  0  0  0  0  0  0
   64.5858   -3.5072   -0.1763 C   0  0  0  0  0  0  0  0  0  0  0  0
   63.3160   -2.8397   -0.2215 C   0  0  0  0  0  0  0  0  0  0  0  0
   63.5158   -1.4856   -0.1682 N   0  0  0  0  0  0  0  0  0  0  0  0
   62.0771   -3.4797   -0.2909 C   0  0  0  0  0  0  0  0  0  0  0  0
   62.0787   -4.9614   -0.4010 C   0  0  0  0  0  0  0  0  0  0  0  0
   62.6661   -5.5783   -1.5060 C   0  0  0  0  0  0  0  0  0  0  0  0
   62.6523   -6.9638   -1.6153 C   0  0  0  0  0  0  0  0  0  0  0  0
   63.2025   -7.5754   -2.6909 O   0  0  0  0  0  0  0  0  0  0  0  0
   62.0580   -7.7339   -0.6135 C   0  0  0  0  0  0  0  0  0  0  0  0
   62.0699   -9.1134   -0.7611 O   0  0  0  0  0  0  0  0  0  0  0  0
   61.5054   -7.1205    0.5090 C   0  0  0  0  0  0  0  0  0  0  0  0
   60.9542   -7.8695    1.5077 O   0  0  0  0  0  0  0  0  0  0  0  0
   61.4987   -5.7335    0.6058 C   0  0  0  0  0  0  0  0  0  0  0  0
   60.8355   -2.8410   -0.2628 C   0  0  0  0  0  0  0  0  0  0  0  0
   59.5680   -3.5004   -0.3988 C   0  0  0  0  0  0  0  0  0  0  0  0
   58.6100   -2.5423   -0.3166 C   0  0  0  0  0  0  0  0  0  0  0  0
   59.2854   -1.2922   -0.1404 C   0  0  0  0  0  0  0  0  0  0  0  0
   60.6304   -1.4949   -0.1152 N   0  0  0  0  0  0  0  0  0  0  0  0
   57.5339    2.5508    0.3830 H   0  0  0  0  0  0  0  0  0  0  0  0
   59.4173    4.4607    0.5038 H   0  0  0  0  0  0  0  0  0  0  0  0
   63.1479    4.9306    2.1398 H   0  0  0  0  0  0  0  0  0  0  0  0
   63.6618    6.9056    3.1239 H   0  0  0  0  0  0  0  0  0  0  0  0
   61.5788    9.3720   -0.2374 H   0  0  0  0  0  0  0  0  0  0  0  0
   60.4701    7.3180   -2.2523 H   0  0  0  0  0  0  0  0  0  0  0  0
   60.9668    5.1662   -1.5546 H   0  0  0  0  0  0  0  0  0  0  0  0
   64.7065    4.5026    0.0313 H   0  0  0  0  0  0  0  0  0  0  0  0
   66.5973    2.6002   -0.0847 H   0  0  0  0  0  0  0  0  0  0  0  0
   66.6098   -2.6663   -0.0574 H   0  0  0  0  0  0  0  0  0  0  0  0
   64.7255   -4.5760   -0.1818 H   0  0  0  0  0  0  0  0  0  0  0  0
   63.1117   -4.9887   -2.2968 H   0  0  0  0  0  0  0  0  0  0  0  0
   63.0947   -8.5354   -2.5838 H   0  0  0  0  0  0  0  0  0  0  0  0
   61.2270   -9.4948   -0.4829 H   0  0  0  0  0  0  0  0  0  0  0  0
   61.2628   -8.7847    1.4513 H   0  0  0  0  0  0  0  0  0  0  0  0
   61.0653   -5.2671    1.4810 H   0  0  0  0  0  0  0  0  0  0  0  0
   59.4321   -4.5589   -0.5506 H   0  0  0  0  0  0  0  0  0  0  0  0
   57.5400   -2.6609   -0.3779 H   0  0  0  0  0  0  0  0  0  0  0  0
   78.1159    0.0033   -0.0226 Cu  0  0  0  0  0  0  0  0  0  0  0  0
   74.6805   -0.0028   -0.0553 C   0  0  0  0  0  0  0  0  0  0  0  0
   75.3264    1.2404    0.0760 C   0  0  0  0  0  0  0  0  0  0  0  0
   74.6455    2.4865    0.2554 C   0  0  0  0  0  0  0  0  0  0  0  0
   75.5991    3.4501    0.3302 C   0  0  0  0  0  0  0  0  0  0  0  0
   76.8692    2.7976    0.1880 C   0  0  0  0  0  0  0  0  0  0  0  0
   76.6701    1.4500    0.0431 N   0  0  0  0  0  0  0  0  0  0  0  0
   78.1078    3.4431    0.2114 C   0  0  0  0  0  0  0  0  0  0  0  0
   78.1039    4.9243    0.3064 C   0  0  0  0  0  0  0  0  0  0  0  0
   78.7071    5.5629    1.3905 C   0  0  0  0  0  0  0  0  0  0  0  0
   78.7087    6.9513    1.4942 C   0  0  0  0  0  0  0  0  0  0  0  0
   79.2843    7.5835    2.5501 O   0  0  0  0  0  0  0  0  0  0  0  0
   78.1071    7.7223    0.4942 C   0  0  0  0  0  0  0  0  0  0  0  0
   78.0976    9.0789    0.5632 O   0  0  0  0  0  0  0  0  0  0  0  0
   77.5086    7.0755   -0.5902 C   0  0  0  0  0  0  0  0  0  0  0  0
   76.9412    7.8889   -1.5372 O   0  0  0  0  0  0  0  0  0  0  0  0
   77.4969    5.6913   -0.6899 C   0  0  0  0  0  0  0  0  0  0  0  0
   79.3495    2.8060    0.1521 C   0  0  0  0  0  0  0  0  0  0  0  0
   80.6171    3.4770    0.1047 C   0  0  0  0  0  0  0  0  0  0  0  0
   81.5750    2.5160    0.0578 C   0  0  0  0  0  0  0  0  0  0  0  0
   79.5543    1.4519    0.1168 N   0  0  0  0  0  0  0  0  0  0  0  0
   80.8993    1.2542    0.0643 C   0  0  0  0  0  0  0  0  0  0  0  0
   81.5505    0.0075    0.0276 C   0  0  0  0  0  0  0  0  0  0  0  0
   80.9043   -1.2402   -0.0340 C   0  0  0  0  0  0  0  0  0  0  0  0
   81.5832   -2.5008   -0.0259 C   0  0  0  0  0  0  0  0  0  0  0  0
   80.6299   -3.4631   -0.1127 C   0  0  0  0  0  0  0  0  0  0  0  0
   79.3619   -2.7943   -0.1822 C   0  0  0  0  0  0  0  0  0  0  0  0
   79.5617   -1.4405   -0.1242 N   0  0  0  0  0  0  0  0  0  0  0  0
   78.1240   -3.4335   -0.2760 C   0  0  0  0  0  0  0  0  0  0  0  0
   78.1273   -4.9151   -0.3867 C   0  0  0  0  0  0  0  0  0  0  0  0
   78.7366   -5.5311   -1.4804 C   0  0  0  0  0  0  0  0  0  0  0  0
   78.7269   -6.9167   -1.5901 C   0  0  0  0  0  0  0  0  0  0  0  0
   79.2993   -7.5272   -2.6545 O   0  0  0  0  0  0  0  0  0  0  0  0
   78.1145   -7.6876   -0.5998 C   0  0  0  0  0  0  0  0  0  0  0  0
   78.1320   -9.0673   -0.7459 O   0  0  0  0  0  0  0  0  0  0  0  0
   77.5393   -7.0750    0.5117 C   0  0  0  0  0  0  0  0  0  0  0  0
   76.9703   -7.8254    1.4992 O   0  0  0  0  0  0  0  0  0  0  0  0
   77.5287   -5.6880    0.6085 C   0  0  0  0  0  0  0  0  0  0  0  0
   76.8830   -2.7936   -0.2716 C   0  0  0  0  0  0  0  0  0  0  0  0
   75.6177   -3.4514   -0.4325 C   0  0  0  0  0  0  0  0  0  0  0  0
   74.6594   -2.4922   -0.3693 C   0  0  0  0  0  0  0  0  0  0  0  0
   75.3326   -1.2430   -0.1792 C   0  0  0  0  0  0  0  0  0  0  0  0
   76.6766   -1.4471   -0.1276 N   0  0  0  0  0  0  0  0  0  0  0  0
   73.5754    2.5996    0.3240 H   0  0  0  0  0  0  0  0  0  0  0  0
   75.4580    4.5076    0.4850 H   0  0  0  0  0  0  0  0  0  0  0  0
   79.1650    4.9747    2.1778 H   0  0  0  0  0  0  0  0  0  0  0  0
   79.6645    6.9488    3.1714 H   0  0  0  0  0  0  0  0  0  0  0  0
   77.6352    9.4188   -0.2199 H   0  0  0  0  0  0  0  0  0  0  0  0
   76.5474    7.3667   -2.2481 H   0  0  0  0  0  0  0  0  0  0  0  0
   77.0380    5.2142   -1.5478 H   0  0  0  0  0  0  0  0  0  0  0  0
   80.7540    4.5461    0.0927 H   0  0  0  0  0  0  0  0  0  0  0  0
   82.6449    2.6417    0.0116 H   0  0  0  0  0  0  0  0  0  0  0  0
   82.6520   -2.6242    0.0454 H   0  0  0  0  0  0  0  0  0  0  0  0
   80.7688   -4.5320   -0.1165 H   0  0  0  0  0  0  0  0  0  0  0  0
   79.1968   -4.9408   -2.2622 H   0  0  0  0  0  0  0  0  0  0  0  0
   79.1919   -8.4875   -2.5495 H   0  0  0  0  0  0  0  0  0  0  0  0
   77.2812   -9.4490   -0.4931 H   0  0  0  0  0  0  0  0  0  0  0  0
   77.2821   -8.7399    1.4478 H   0  0  0  0  0  0  0  0  0  0  0  0
   77.0779   -5.2223    1.4752 H   0  0  0  0  0  0  0  0  0  0  0  0
   75.4838   -4.5098   -0.5868 H   0  0  0  0  0  0  0  0  0  0  0  0
   73.5907   -2.6095   -0.4517 H   0  0  0  0  0  0  0  0  0  0  0  0
  2  3  4  0  0  0  0
  3  4  1  0  0  0  0
  4  5  2  0  0  0  0
  5  6  4  0  0  0  0
  1  7  1  0  0  0  0
  3  7  4  0  0  0  0
  6  7  4  0  0  0  0
  6  8  4  0  0  0  0
  8  9  1  0  0  0  0
  9 10  4  0  0  0  0
 10 11  4  0  0  0  0
 11 12  1  0  0  0  0
 11 13  4  0  0  0  0
 13 14  1  0  0  0  0
 13 15  4  0  0  0  0
 15 16  1  0  0  0  0
  9 17  4  0  0  0  0
 15 17  4  0  0  0  0
  8 18  4  0  0  0  0
 18 19  4  0  0  0  0
 19 20  2  0  0  0  0
  1 21  1  0  0  0  0
 18 21  4  0  0  0  0
 20 22  4  0  0  0  0
 21 22  4  0  0  0  0
 22 23  4  0  0  0  0
 23 24  4  0  0  0  0
 24 25  4  0  0  0  0
 25 26  2  0  0  0  0
 26 27  4  0  0  0  0
  1 28  1  0  0  0  0
 24 28  4  0  0  0  0
 27 28  4  0  0  0  0
 27 29  4  0  0  0  0
 29 30  1  0  0  0  0
 30 31  4  0  0  0  0
 31 32  4  0  0  0  0
 32 33  1  0  0  0  0
 32 34  4  0  0  0  0
 34 35  1  0  0  0  0
 34 36  4  0  0  0  0
 36 37  1  0  0  0  0
 30 38  4  0  0  0  0
 36 38  4  0  0  0  0
 29 39  4  0  0  0  0
 39 40  4  0  0  0  0
 40 41  2  0  0  0  0
  2 42  4  0  0  0  0
 41 42  1  0  0  0  0
  1 43  1  0  0  0  0
 39 43  4  0  0  0  0
 42 43  4  0  0  0  0
  2 44  1  0  0  0  0
  4 45  1  0  0  0  0
  5 46  1  0  0  0  0
 10 47  1  0  0  0  0
 12 48  1  0  0  0  0
 14 49  1  0  0  0  0
 16 50  1  0  0  0  0
 17 51  1  0  0  0  0
 19 52  1  0  0  0  0
 20 53  1  0  0  0  0
 25 54  1  0  0  0  0
 26 55  1  0  0  0  0
 31 56  1  0  0  0  0
 33 57  1  0  0  0  0
 35 58  1  0  0  0  0
 37 59  1  0  0  0  0
 38 60  1  0  0  0  0
 40 61  1  0  0  0  0
 41 62  1  0  0  0  0
 64 65  4  0  0  0  0
 65 66  1  0  0  0  0
 66 67  2  0  0  0  0
 67 68  4  0  0  0  0
 63 69  1  0  0  0  0
 65 69  4  0  0  0  0
 68 69  4  0  0  0  0
 68 70  4  0  0  0  0
 70 71  1  0  0  0  0
 71 72  4  0  0  0  0
 72 73  4  0  0  0  0
 73 74  1  0  0  0  0
 73 75  4  0  0  0  0
 75 76  1  0  0  0  0
 75 77  4  0  0  0  0
 77 78  1  0  0  0  0
 71 79  4  0  0  0  0
 77 79  4  0  0  0  0
 70 80  4  0  0  0  0
 80 81  4  0  0  0  0
 81 82  2  0  0  0  0
 63 83  1  0  0  0  0
 80 83  4  0  0  0  0
 82 84  4  0  0  0  0
 83 84  4  0  0  0  0
 84 85  4  0  0  0  0
 85 86  4  0  0  0  0
 86 87  4  0  0  0  0
 87 88  2  0  0  0  0
 88 89  4  0  0  0  0
 63 90  1  0  0  0  0
 86 90  4  0  0  0  0
 89 90  4  0  0  0  0
 89 91  4  0  0  0  0
 91 92  1  0  0  0  0
 92 93  4  0  0  0  0
 93 94  4  0  0  0  0
 94 95  1  0  0  0  0
 94 96  4  0  0  0  0
 96 97  1  0  0  0  0
 96 98  4  0  0  0  0
 98 99  1  0  0  0  0
 92100  4  0  0  0  0
 98100  4  0  0  0  0
 91101  4  0  0  0  0
101102  4  0  0  0  0
102103  2  0  0  0  0
 64104  4  0  0  0  0
103104  1  0  0  0  0
 63105  1  0  0  0  0
101105  4  0  0  0  0
104105  4  0  0  0  0
 64106  1  0  0  0  0
 66107  1  0  0  0  0
 67108  1  0  0  0  0
 72109  1  0  0  0  0
 74110  1  0  0  0  0
 76111  1  0  0  0  0
 78112  1  0  0  0  0
 79113  1  0  0  0  0
 81114  1  0  0  0  0
 82115  1  0  0  0  0
 87116  1  0  0  0  0
 88117  1  0  0  0  0
 93118  1  0  0  0  0
 95119  1  0  0  0  0
 97120  1  0  0  0  0
 99121  1  0  0  0  0
100122  1  0  0  0  0
102123  1  0  0  0  0
103124  1  0  0  0  0
125126  3  0  0  0  0
126127  4  0  0  0  0
 23128  4  0  0  0  0
127128  3  0  0  0  0
125129  4  0  0  0  0
129130  3  0  0  0  0
131132  3  0  0  0  0
132133  4  0  0  0  0
133134  3  0  0  0  0
131135  4  0  0  0  0
135136  3  0  0  0  0
137138  3  0  0  0  0
138139  4  0  0  0  0
139140  3  0  0  0  0
137141  4  0  0  0  0
 85142  4  0  0  0  0
141142  3  0  0  0  0
130144  4  0  0  0  0
144145  4  0  0  0  0
145146  4  0  0  0  0
146147  2  0  0  0  0
147148  4  0  0  0  0
143149  1  0  0  0  0
145149  4  0  0  0  0
148149  4  0  0  0  0
148150  4  0  0  0  0
150151  1  0  0  0  0
151152  4  0  0  0  0
152153  4  0  0  0  0
153154  1  0  0  0  0
153155  4  0  0  0  0
155156  1  0  0  0  0
155157  4  0  0  0  0
157158  1  0  0  0  0
151159  4  0  0  0  0
157159  4  0  0  0  0
150160  4  0  0  0  0
160161  4  0  0  0  0
161162  2  0  0  0  0
143163  1  0  0  0  0
160163  4  0  0  0  0
162164  4  0  0  0  0
163164  4  0  0  0  0
134165  4  0  0  0  0
164165  4  0  0  0  0
165166  4  0  0  0  0
166167  4  0  0  0  0
167168  2  0  0  0  0
168169  4  0  0  0  0
143170  1  0  0  0  0
166170  4  0  0  0  0
169170  4  0  0  0  0
169171  4  0  0  0  0
171172  1  0  0  0  0
172173  4  0  0  0  0
173174  4  0  0  0  0
174175  1  0  0  0  0
174176  4  0  0  0  0
176177  1  0  0  0  0
176178  4  0  0  0  0
178179  1  0  0  0  0
172180  4  0  0  0  0
178180  4  0  0  0  0
171181  4  0  0  0  0
181182  4  0  0  0  0
182183  2  0  0  0  0
144184  4  0  0  0  0
183184  4  0  0  0  0
143185  1  0  0  0  0
181185  4  0  0  0  0
184185  4  0  0  0  0
146186  1  0  0  0  0
147187  1  0  0  0  0
152188  1  0  0  0  0
154189  1  0  0  0  0
156190  1  0  0  0  0
158191  1  0  0  0  0
159192  1  0  0  0  0
161193  1  0  0  0  0
162194  1  0  0  0  0
167195  1  0  0  0  0
168196  1  0  0  0  0
173197  1  0  0  0  0
175198  1  0  0  0  0
177199  1  0  0  0  0
179200  1  0  0  0  0
180201  1  0  0  0  0
182202  1  0  0  0  0
183203  1  0  0  0  0
136205  4  0  0  0  0
205206  4  0  0  0  0
206207  4  0  0  0  0
207208  2  0  0  0  0
208209  4  0  0  0  0
204210  1  0  0  0  0
206210  4  0  0  0  0
209210  4  0  0  0  0
209211  4  0  0  0  0
211212  1  0  0  0  0
212213  4  0  0  0  0
213214  4  0  0  0  0
214215  1  0  0  0  0
214216  4  0  0  0  0
216217  1  0  0  0  0
216218  4  0  0  0  0
218219  1  0  0  0  0
212220  4  0  0  0  0
218220  4  0  0  0  0
211221  4  0  0  0  0
221222  4  0  0  0  0
222223  2  0  0  0  0
204224  1  0  0  0  0
221224  4  0  0  0  0
223225  4  0  0  0  0
224225  4  0  0  0  0
140226  4  0  0  0  0
225226  4  0  0  0  0
226227  4  0  0  0  0
227228  4  0  0  0  0
228229  2  0  0  0  0
229230  4  0  0  0  0
204231  1  0  0  0  0
227231  4  0  0  0  0
230231  4  0  0  0  0
230232  4  0  0  0  0
232233  1  0  0  0  0
233234  4  0  0  0  0
234235  4  0  0  0  0
235236  1  0  0  0  0
235237  4  0  0  0  0
237238  1  0  0  0  0
237239  4  0  0  0  0
239240  1  0  0  0  0
233241  4  0  0  0  0
239241  4  0  0  0  0
232242  4  0  0  0  0
242243  4  0  0  0  0
243244  2  0  0  0  0
205245  4  0  0  0  0
244245  4  0  0  0  0
204246  1  0  0  0  0
242246  4  0  0  0  0
245246  4  0  0  0  0
207247  1  0  0  0  0
208248  1  0  0  0  0
213249  1  0  0  0  0
215250  1  0  0  0  0
217251  1  0  0  0  0
219252  1  0  0  0  0
220253  1  0  0  0  0
222254  1  0  0  0  0
223255  1  0  0  0  0
228256  1  0  0  0  0
229257  1  0  0  0  0
234258  1  0  0  0  0
236259  1  0  0  0  0
238260  1  0  0  0  0
240261  1  0  0  0  0
241262  1  0  0  0  0
243263  1  0  0  0  0
244264  1  0  0  0  0
M  END
