 xtb: 6.5.1 (b24c23e)
          07302209363D

211240  0     0  0            999 V2000
   30.9328    0.0626   -0.1187 Zn  0  0  0  0  0  0  0  0  0  0  0  0
   27.5283    0.1564   -0.3063 C   0  0  0  0  0  0  0  0  0  0  0  0
   28.1624    1.3444    0.0376 C   0  0  0  0  0  0  0  0  0  0  0  0
   27.4930    2.5749    0.3542 C   0  0  0  0  0  0  0  0  0  0  0  0
   28.4542    3.4848    0.6520 C   0  0  0  0  0  0  0  0  0  0  0  0
   29.7245    2.8239    0.5094 C   0  0  0  0  0  0  0  0  0  0  0  0
   29.5114    1.5264    0.1447 N   0  0  0  0  0  0  0  0  0  0  0  0
   30.9763    3.4109    0.7314 C   0  0  0  0  0  0  0  0  0  0  0  0
   32.2111    2.7614    0.6276 C   0  0  0  0  0  0  0  0  0  0  0  0
   33.4938    3.3857    0.7992 C   0  0  0  0  0  0  0  0  0  0  0  0
   34.4352    2.4272    0.6041 C   0  0  0  0  0  0  0  0  0  0  0  0
   32.3988    1.4399    0.3203 N   0  0  0  0  0  0  0  0  0  0  0  0
   33.7391    1.2100    0.3064 C   0  0  0  0  0  0  0  0  0  0  0  0
   34.3634   -0.0259    0.0426 C   0  0  0  0  0  0  0  0  0  0  0  0
   33.7038   -1.2326   -0.2668 C   0  0  0  0  0  0  0  0  0  0  0  0
   34.3641   -2.4739   -0.5464 C   0  0  0  0  0  0  0  0  0  0  0  0
   33.3961   -3.3865   -0.8172 C   0  0  0  0  0  0  0  0  0  0  0  0
   32.1330   -2.7117   -0.7005 C   0  0  0  0  0  0  0  0  0  0  0  0
   30.8823   -3.2950   -0.9283 C   0  0  0  0  0  0  0  0  0  0  0  0
   30.8582   -4.7424   -1.2626 C   0  0  0  0  0  0  0  0  0  0  0  0
   30.3909   -5.1723   -2.5023 C   0  0  0  0  0  0  0  0  0  0  0  0
   30.3625   -6.5283   -2.8163 C   0  0  0  0  0  0  0  0  0  0  0  0
   29.8450   -6.9777   -4.1563 C   0  0  0  0  0  0  0  0  0  0  0  0
   30.7993   -7.4546   -1.8762 C   0  0  0  0  0  0  0  0  0  0  0  0
   31.2672   -7.0404   -0.6311 C   0  0  0  0  0  0  0  0  0  0  0  0
   31.7467   -8.0569    0.3699 C   0  0  0  0  0  0  0  0  0  0  0  0
   31.2981   -5.6839   -0.3319 C   0  0  0  0  0  0  0  0  0  0  0  0
   29.6496   -2.6347   -0.8643 C   0  0  0  0  0  0  0  0  0  0  0  0
   28.3629   -3.2468   -1.0653 C   0  0  0  0  0  0  0  0  0  0  0  0
   27.4276   -2.2789   -0.8956 C   0  0  0  0  0  0  0  0  0  0  0  0
   28.1296   -1.0664   -0.5798 C   0  0  0  0  0  0  0  0  0  0  0  0
   29.4722   -1.3146   -0.5681 N   0  0  0  0  0  0  0  0  0  0  0  0
   32.3584   -1.4022   -0.3684 N   0  0  0  0  0  0  0  0  0  0  0  0
   30.9941    4.8458    1.1137 C   0  0  0  0  0  0  0  0  0  0  0  0
   30.4947    5.8147    0.2439 C   0  0  0  0  0  0  0  0  0  0  0  0
   30.5051    7.1584    0.6013 C   0  0  0  0  0  0  0  0  0  0  0  0
   29.9855    8.2037   -0.3488 C   0  0  0  0  0  0  0  0  0  0  0  0
   31.0193    7.5313    1.8400 C   0  0  0  0  0  0  0  0  0  0  0  0
   31.5218    6.5768    2.7189 C   0  0  0  0  0  0  0  0  0  0  0  0
   32.0536    6.9864    4.0660 C   0  0  0  0  0  0  0  0  0  0  0  0
   31.5072    5.2358    2.3498 C   0  0  0  0  0  0  0  0  0  0  0  0
   26.4439    0.1830   -0.3527 H   0  0  0  0  0  0  0  0  0  0  0  0
   26.4228    2.7114    0.3539 H   0  0  0  0  0  0  0  0  0  0  0  0
   28.3190    4.5113    0.9531 H   0  0  0  0  0  0  0  0  0  0  0  0
   33.6522    4.4278    1.0261 H   0  0  0  0  0  0  0  0  0  0  0  0
   35.5078    2.5289    0.6517 H   0  0  0  0  0  0  0  0  0  0  0  0
   35.4327   -2.6195   -0.5402 H   0  0  0  0  0  0  0  0  0  0  0  0
   33.5236   -4.4230   -1.0853 H   0  0  0  0  0  0  0  0  0  0  0  0
   30.0614   -4.4405   -3.2319 H   0  0  0  0  0  0  0  0  0  0  0  0
   30.1111   -8.0168   -4.3499 H   0  0  0  0  0  0  0  0  0  0  0  0
   28.7566   -6.8904   -4.1844 H   0  0  0  0  0  0  0  0  0  0  0  0
   30.2529   -6.3553   -4.9539 H   0  0  0  0  0  0  0  0  0  0  0  0
   30.7757   -8.5134   -2.1131 H   0  0  0  0  0  0  0  0  0  0  0  0
   31.8248   -7.6184    1.3646 H   0  0  0  0  0  0  0  0  0  0  0  0
   31.0640   -8.9065    0.4121 H   0  0  0  0  0  0  0  0  0  0  0  0
   32.7317   -8.4301    0.0807 H   0  0  0  0  0  0  0  0  0  0  0  0
   31.6506   -5.3487    0.6376 H   0  0  0  0  0  0  0  0  0  0  0  0
   28.2005   -4.2876   -1.2957 H   0  0  0  0  0  0  0  0  0  0  0  0
   26.3548   -2.3684   -0.9677 H   0  0  0  0  0  0  0  0  0  0  0  0
   30.1101    5.5139   -0.7246 H   0  0  0  0  0  0  0  0  0  0  0  0
   29.4883    9.0076    0.1950 H   0  0  0  0  0  0  0  0  0  0  0  0
   29.2814    7.7694   -1.0585 H   0  0  0  0  0  0  0  0  0  0  0  0
   30.8141    8.6386   -0.9125 H   0  0  0  0  0  0  0  0  0  0  0  0
   31.0282    8.5789    2.1231 H   0  0  0  0  0  0  0  0  0  0  0  0
   31.2480    6.9698    4.8037 H   0  0  0  0  0  0  0  0  0  0  0  0
   32.4616    7.9968    4.0320 H   0  0  0  0  0  0  0  0  0  0  0  0
   32.8331    6.3014    4.4001 H   0  0  0  0  0  0  0  0  0  0  0  0
   31.8826    4.4815    3.0329 H   0  0  0  0  0  0  0  0  0  0  0  0
   57.8889    0.0631   -0.0812 Zn  0  0  0  0  0  0  0  0  0  0  0  0
   61.2931    0.2001   -0.2332 C   0  0  0  0  0  0  0  0  0  0  0  0
   60.6538   -0.4671   -1.2714 C   0  0  0  0  0  0  0  0  0  0  0  0
   61.3171   -1.1190   -2.3660 C   0  0  0  0  0  0  0  0  0  0  0  0
   60.3520   -1.6695   -3.1443 C   0  0  0  0  0  0  0  0  0  0  0  0
   59.0854   -1.3530   -2.5390 C   0  0  0  0  0  0  0  0  0  0  0  0
   59.3044   -0.6277   -1.4042 N   0  0  0  0  0  0  0  0  0  0  0  0
   57.8329   -1.7536   -3.0185 C   0  0  0  0  0  0  0  0  0  0  0  0
   56.6019   -1.4788   -2.4133 C   0  0  0  0  0  0  0  0  0  0  0  0
   55.3178   -1.8535   -2.9385 C   0  0  0  0  0  0  0  0  0  0  0  0
   54.3800   -1.3817   -2.0783 C   0  0  0  0  0  0  0  0  0  0  0  0
   56.4189   -0.7803   -1.2500 N   0  0  0  0  0  0  0  0  0  0  0  0
   55.0793   -0.7084   -1.0230 C   0  0  0  0  0  0  0  0  0  0  0  0
   54.4587   -0.0549    0.0589 C   0  0  0  0  0  0  0  0  0  0  0  0
   55.1193    0.6321    1.0952 C   0  0  0  0  0  0  0  0  0  0  0  0
   54.4620    1.3031    2.1784 C   0  0  0  0  0  0  0  0  0  0  0  0
   55.4331    1.8313    2.9662 C   0  0  0  0  0  0  0  0  0  0  0  0
   56.6956    1.4840    2.3736 C   0  0  0  0  0  0  0  0  0  0  0  0
   57.9499    1.8510    2.8733 C   0  0  0  0  0  0  0  0  0  0  0  0
   57.9761    2.5986    4.1565 C   0  0  0  0  0  0  0  0  0  0  0  0
   58.4864    3.8937    4.2119 C   0  0  0  0  0  0  0  0  0  0  0  0
   58.5136    4.5926    5.4156 C   0  0  0  0  0  0  0  0  0  0  0  0
   59.0790    5.9867    5.4624 C   0  0  0  0  0  0  0  0  0  0  0  0
   58.0309    3.9837    6.5685 C   0  0  0  0  0  0  0  0  0  0  0  0
   57.5196    2.6885    6.5300 C   0  0  0  0  0  0  0  0  0  0  0  0
   56.9884    2.0493    7.7848 C   0  0  0  0  0  0  0  0  0  0  0  0
   57.4920    2.0030    5.3217 C   0  0  0  0  0  0  0  0  0  0  0  0
   59.1820    1.5680    2.2722 C   0  0  0  0  0  0  0  0  0  0  0  0
   60.4723    1.9179    2.8049 C   0  0  0  0  0  0  0  0  0  0  0  0
   61.4043    1.4611    1.9315 C   0  0  0  0  0  0  0  0  0  0  0  0
   60.6969    0.8169    0.8603 C   0  0  0  0  0  0  0  0  0  0  0  0
   59.3545    0.8952    1.0976 N   0  0  0  0  0  0  0  0  0  0  0  0
   56.4667    0.7628    1.2328 N   0  0  0  0  0  0  0  0  0  0  0  0
   57.8057   -2.5373   -4.2802 C   0  0  0  0  0  0  0  0  0  0  0  0
   58.2574   -1.9702   -5.4714 C   0  0  0  0  0  0  0  0  0  0  0  0
   58.2254   -2.6968   -6.6564 C   0  0  0  0  0  0  0  0  0  0  0  0
   58.6864   -2.0724   -7.9459 C   0  0  0  0  0  0  0  0  0  0  0  0
   57.7405   -4.0017   -6.6442 C   0  0  0  0  0  0  0  0  0  0  0  0
   57.2889   -4.5825   -5.4634 C   0  0  0  0  0  0  0  0  0  0  0  0
   56.7879   -6.0017   -5.4539 C   0  0  0  0  0  0  0  0  0  0  0  0
   57.3230   -3.8448   -4.2845 C   0  0  0  0  0  0  0  0  0  0  0  0
   62.3776    0.2322   -0.2744 H   0  0  0  0  0  0  0  0  0  0  0  0
   62.3863   -1.1513   -2.5067 H   0  0  0  0  0  0  0  0  0  0  0  0
   60.4812   -2.2495   -4.0442 H   0  0  0  0  0  0  0  0  0  0  0  0
   55.1560   -2.3967   -3.8557 H   0  0  0  0  0  0  0  0  0  0  0  0
   53.3076   -1.4717   -2.1487 H   0  0  0  0  0  0  0  0  0  0  0  0
   53.3931    1.3616    2.3098 H   0  0  0  0  0  0  0  0  0  0  0  0
   55.3084    2.4164    3.8632 H   0  0  0  0  0  0  0  0  0  0  0  0
   58.8497    4.3640    3.3046 H   0  0  0  0  0  0  0  0  0  0  0  0
   58.7861    6.4967    6.3801 H   0  0  0  0  0  0  0  0  0  0  0  0
   60.1700    5.9479    5.4242 H   0  0  0  0  0  0  0  0  0  0  0  0
   58.7330    6.5709    4.6088 H   0  0  0  0  0  0  0  0  0  0  0  0
   58.0524    4.5223    7.5103 H   0  0  0  0  0  0  0  0  0  0  0  0
   56.8903    0.9708    7.6619 H   0  0  0  0  0  0  0  0  0  0  0  0
   57.6500    2.2492    8.6286 H   0  0  0  0  0  0  0  0  0  0  0  0
   56.0041    2.4583    8.0237 H   0  0  0  0  0  0  0  0  0  0  0  0
   57.1066    0.9900    5.2802 H   0  0  0  0  0  0  0  0  0  0  0  0
   60.6393    2.4377    3.7349 H   0  0  0  0  0  0  0  0  0  0  0  0
   62.4781    1.5404    2.0002 H   0  0  0  0  0  0  0  0  0  0  0  0
   58.6192   -0.9478   -5.4711 H   0  0  0  0  0  0  0  0  0  0  0  0
   59.1804   -2.8106   -8.5785 H   0  0  0  0  0  0  0  0  0  0  0  0
   59.3773   -1.2509   -7.7561 H   0  0  0  0  0  0  0  0  0  0  0  0
   57.8284   -1.6769   -8.4944 H   0  0  0  0  0  0  0  0  0  0  0  0
   57.7139   -4.5718   -7.5673 H   0  0  0  0  0  0  0  0  0  0  0  0
   57.6094   -6.6841   -5.2238 H   0  0  0  0  0  0  0  0  0  0  0  0
   56.3802   -6.2768   -6.4269 H   0  0  0  0  0  0  0  0  0  0  0  0
   56.0150   -6.1348   -4.6965 H   0  0  0  0  0  0  0  0  0  0  0  0
   56.9847   -4.2911   -3.3557 H   0  0  0  0  0  0  0  0  0  0  0  0
   36.9902   -0.0781    0.1037 C   0  0  0  0  0  0  0  0  0  0  0  0
   35.7686   -0.0548    0.0797 C   0  0  0  0  0  0  0  0  0  0  0  0
   38.3397   -0.0986    0.1193 C   0  0  0  0  0  0  0  0  0  0  0  0
   39.5621   -0.1120    0.1248 C   0  0  0  0  0  0  0  0  0  0  0  0
   50.4773   -0.1282    0.1195 C   0  0  0  0  0  0  0  0  0  0  0  0
   49.2560   -0.1434    0.1151 C   0  0  0  0  0  0  0  0  0  0  0  0
   51.8294   -0.1097    0.1113 C   0  0  0  0  0  0  0  0  0  0  0  0
   53.0502   -0.0821    0.0973 C   0  0  0  0  0  0  0  0  0  0  0  0
   44.4079   -0.1325    0.1073 Zn  0  0  0  0  0  0  0  0  0  0  0  0
   40.9676   -0.1193    0.1237 C   0  0  0  0  0  0  0  0  0  0  0  0
   41.6161    1.1280    0.0202 C   0  0  0  0  0  0  0  0  0  0  0  0
   40.9441    2.3913   -0.0561 C   0  0  0  0  0  0  0  0  0  0  0  0
   41.9039    3.3454   -0.1668 C   0  0  0  0  0  0  0  0  0  0  0  0
   43.1723    2.6717   -0.1654 C   0  0  0  0  0  0  0  0  0  0  0  0
   42.9604    1.3248   -0.0394 N   0  0  0  0  0  0  0  0  0  0  0  0
   44.4195    3.2987   -0.2567 C   0  0  0  0  0  0  0  0  0  0  0  0
   45.6635    2.6614   -0.1960 C   0  0  0  0  0  0  0  0  0  0  0  0
   46.9374    3.3124   -0.3236 C   0  0  0  0  0  0  0  0  0  0  0  0
   47.8905    2.3520   -0.2121 C   0  0  0  0  0  0  0  0  0  0  0  0
   45.8654    1.3179   -0.0263 N   0  0  0  0  0  0  0  0  0  0  0  0
   47.2090    1.1044   -0.0293 C   0  0  0  0  0  0  0  0  0  0  0  0
   47.8472   -0.1434    0.1092 C   0  0  0  0  0  0  0  0  0  0  0  0
   47.2010   -1.3879    0.2367 C   0  0  0  0  0  0  0  0  0  0  0  0
   47.8741   -2.6428    0.3987 C   0  0  0  0  0  0  0  0  0  0  0  0
   46.9146   -3.5989    0.4917 C   0  0  0  0  0  0  0  0  0  0  0  0
   45.6448   -2.9370    0.3784 C   0  0  0  0  0  0  0  0  0  0  0  0
   44.3967   -3.5668    0.4362 C   0  0  0  0  0  0  0  0  0  0  0  0
   44.3904   -5.0445    0.5886 C   0  0  0  0  0  0  0  0  0  0  0  0
   43.8326   -5.6292    1.7239 C   0  0  0  0  0  0  0  0  0  0  0  0
   43.8221   -7.0124    1.8752 C   0  0  0  0  0  0  0  0  0  0  0  0
   43.2355   -7.6302    3.1160 C   0  0  0  0  0  0  0  0  0  0  0  0
   44.3734   -7.8109    0.8790 C   0  0  0  0  0  0  0  0  0  0  0  0
   44.9318   -7.2420   -0.2630 C   0  0  0  0  0  0  0  0  0  0  0  0
   45.5346   -8.1207   -1.3259 C   0  0  0  0  0  0  0  0  0  0  0  0
   44.9400   -5.8590   -0.4014 C   0  0  0  0  0  0  0  0  0  0  0  0
   43.1530   -2.9298    0.3689 C   0  0  0  0  0  0  0  0  0  0  0  0
   41.8793   -3.5933    0.3783 C   0  0  0  0  0  0  0  0  0  0  0  0
   40.9258   -2.6304    0.2901 C   0  0  0  0  0  0  0  0  0  0  0  0
   41.6070   -1.3718    0.2178 C   0  0  0  0  0  0  0  0  0  0  0  0
   42.9503   -1.5798    0.2612 N   0  0  0  0  0  0  0  0  0  0  0  0
   45.8558   -1.5924    0.2314 N   0  0  0  0  0  0  0  0  0  0  0  0
   44.4210    4.7717   -0.4482 C   0  0  0  0  0  0  0  0  0  0  0  0
   44.9879    5.6122    0.5079 C   0  0  0  0  0  0  0  0  0  0  0  0
   44.9882    6.9916    0.3251 C   0  0  0  0  0  0  0  0  0  0  0  0
   45.6154    7.8899    1.3571 C   0  0  0  0  0  0  0  0  0  0  0  0
   44.4214    7.5274   -0.8267 C   0  0  0  0  0  0  0  0  0  0  0  0
   43.8512    6.7010   -1.7912 C   0  0  0  0  0  0  0  0  0  0  0  0
   43.2585    7.2908   -3.0425 C   0  0  0  0  0  0  0  0  0  0  0  0
   43.8528    5.3248   -1.5956 C   0  0  0  0  0  0  0  0  0  0  0  0
   39.8744    2.5245   -0.0233 H   0  0  0  0  0  0  0  0  0  0  0  0
   41.7674    4.4129   -0.2312 H   0  0  0  0  0  0  0  0  0  0  0  0
   47.0827    4.3679   -0.4883 H   0  0  0  0  0  0  0  0  0  0  0  0
   48.9615    2.4691   -0.2589 H   0  0  0  0  0  0  0  0  0  0  0  0
   48.9445   -2.7675    0.4415 H   0  0  0  0  0  0  0  0  0  0  0  0
   47.0526   -4.6585    0.6351 H   0  0  0  0  0  0  0  0  0  0  0  0
   43.4158   -4.9962    2.4998 H   0  0  0  0  0  0  0  0  0  0  0  0
   42.9656   -8.6720    2.9430 H   0  0  0  0  0  0  0  0  0  0  0  0
   43.9648   -7.5963    3.9286 H   0  0  0  0  0  0  0  0  0  0  0  0
   42.3479   -7.0839    3.4366 H   0  0  0  0  0  0  0  0  0  0  0  0
   44.3659   -8.8904    0.9900 H   0  0  0  0  0  0  0  0  0  0  0  0
   45.6416   -7.5792   -2.2657 H   0  0  0  0  0  0  0  0  0  0  0  0
   44.9148   -9.0020   -1.4949 H   0  0  0  0  0  0  0  0  0  0  0  0
   46.5242   -8.4595   -1.0111 H   0  0  0  0  0  0  0  0  0  0  0  0
   45.3587   -5.4046   -1.2927 H   0  0  0  0  0  0  0  0  0  0  0  0
   41.7345   -4.6602    0.4331 H   0  0  0  0  0  0  0  0  0  0  0  0
   39.8547   -2.7544    0.2689 H   0  0  0  0  0  0  0  0  0  0  0  0
   45.4143    5.1848    1.4090 H   0  0  0  0  0  0  0  0  0  0  0  0
   45.2090    8.8994    1.2939 H   0  0  0  0  0  0  0  0  0  0  0  0
   46.6942    7.9455    1.1941 H   0  0  0  0  0  0  0  0  0  0  0  0
   45.4454    7.5027    2.3621 H   0  0  0  0  0  0  0  0  0  0  0  0
   44.4200    8.6026   -0.9742 H   0  0  0  0  0  0  0  0  0  0  0  0
   42.7977    8.2570   -2.8352 H   0  0  0  0  0  0  0  0  0  0  0  0
   42.5076    6.6252   -3.4685 H   0  0  0  0  0  0  0  0  0  0  0  0
   44.0420    7.4423   -3.7886 H   0  0  0  0  0  0  0  0  0  0  0  0
   43.4218    4.6695   -2.3447 H   0  0  0  0  0  0  0  0  0  0  0  0
  2  3  4  0  0  0  0
  3  4  1  0  0  0  0
  4  5  2  0  0  0  0
  5  6  4  0  0  0  0
  1  7  1  0  0  0  0
  3  7  4  0  0  0  0
  6  7  4  0  0  0  0
  6  8  4  0  0  0  0
  8  9  4  0  0  0  0
  9 10  4  0  0  0  0
 10 11  2  0  0  0  0
  1 12  1  0  0  0  0
  9 12  4  0  0  0  0
 11 13  4  0  0  0  0
 12 13  4  0  0  0  0
 13 14  4  0  0  0  0
 14 15  4  0  0  0  0
 15 16  4  0  0  0  0
 16 17  2  0  0  0  0
 17 18  4  0  0  0  0
 18 19  4  0  0  0  0
 19 20  1  0  0  0  0
 20 21  4  0  0  0  0
 21 22  4  0  0  0  0
 22 23  1  0  0  0  0
 22 24  4  0  0  0  0
 24 25  4  0  0  0  0
 25 26  1  0  0  0  0
 20 27  4  0  0  0  0
 25 27  4  0  0  0  0
 19 28  4  0  0  0  0
 28 29  4  0  0  0  0
 29 30  2  0  0  0  0
  2 31  4  0  0  0  0
 30 31  1  0  0  0  0
  1 32  1  0  0  0  0
 28 32  4  0  0  0  0
 31 32  4  0  0  0  0
  1 33  1  0  0  0  0
 15 33  4  0  0  0  0
 18 33  4  0  0  0  0
  8 34  1  0  0  0  0
 34 35  4  0  0  0  0
 35 36  4  0  0  0  0
 36 37  1  0  0  0  0
 36 38  4  0  0  0  0
 38 39  4  0  0  0  0
 39 40  1  0  0  0  0
 34 41  4  0  0  0  0
 39 41  4  0  0  0  0
  2 42  1  0  0  0  0
  4 43  1  0  0  0  0
  5 44  1  0  0  0  0
 10 45  1  0  0  0  0
 11 46  1  0  0  0  0
 16 47  1  0  0  0  0
 17 48  1  0  0  0  0
 21 49  1  0  0  0  0
 23 50  1  0  0  0  0
 23 51  1  0  0  0  0
 23 52  1  0  0  0  0
 24 53  1  0  0  0  0
 26 54  1  0  0  0  0
 26 55  1  0  0  0  0
 26 56  1  0  0  0  0
 27 57  1  0  0  0  0
 29 58  1  0  0  0  0
 30 59  1  0  0  0  0
 35 60  1  0  0  0  0
 37 61  1  0  0  0  0
 37 62  1  0  0  0  0
 37 63  1  0  0  0  0
 38 64  1  0  0  0  0
 40 65  1  0  0  0  0
 40 66  1  0  0  0  0
 40 67  1  0  0  0  0
 41 68  1  0  0  0  0
 70 71  4  0  0  0  0
 71 72  1  0  0  0  0
 72 73  2  0  0  0  0
 73 74  4  0  0  0  0
 69 75  1  0  0  0  0
 71 75  4  0  0  0  0
 74 75  4  0  0  0  0
 74 76  4  0  0  0  0
 76 77  4  0  0  0  0
 77 78  4  0  0  0  0
 78 79  2  0  0  0  0
 69 80  1  0  0  0  0
 77 80  4  0  0  0  0
 79 81  4  0  0  0  0
 80 81  4  0  0  0  0
 81 82  4  0  0  0  0
 82 83  4  0  0  0  0
 83 84  4  0  0  0  0
 84 85  2  0  0  0  0
 85 86  4  0  0  0  0
 86 87  4  0  0  0  0
 87 88  1  0  0  0  0
 88 89  4  0  0  0  0
 89 90  4  0  0  0  0
 90 91  1  0  0  0  0
 90 92  4  0  0  0  0
 92 93  4  0  0  0  0
 93 94  1  0  0  0  0
 88 95  4  0  0  0  0
 93 95  4  0  0  0  0
 87 96  4  0  0  0  0
 96 97  4  0  0  0  0
 97 98  2  0  0  0  0
 70 99  4  0  0  0  0
 98 99  1  0  0  0  0
 69100  1  0  0  0  0
 96100  4  0  0  0  0
 99100  4  0  0  0  0
 69101  1  0  0  0  0
 83101  4  0  0  0  0
 86101  4  0  0  0  0
 76102  1  0  0  0  0
102103  4  0  0  0  0
103104  4  0  0  0  0
104105  1  0  0  0  0
104106  4  0  0  0  0
106107  4  0  0  0  0
107108  1  0  0  0  0
102109  4  0  0  0  0
107109  4  0  0  0  0
 70110  1  0  0  0  0
 72111  1  0  0  0  0
 73112  1  0  0  0  0
 78113  1  0  0  0  0
 79114  1  0  0  0  0
 84115  1  0  0  0  0
 85116  1  0  0  0  0
 89117  1  0  0  0  0
 91118  1  0  0  0  0
 91119  1  0  0  0  0
 91120  1  0  0  0  0
 92121  1  0  0  0  0
 94122  1  0  0  0  0
 94123  1  0  0  0  0
 94124  1  0  0  0  0
 95125  1  0  0  0  0
 97126  1  0  0  0  0
 98127  1  0  0  0  0
103128  1  0  0  0  0
105129  1  0  0  0  0
105130  1  0  0  0  0
105131  1  0  0  0  0
106132  1  0  0  0  0
108133  1  0  0  0  0
108134  1  0  0  0  0
108135  1  0  0  0  0
109136  1  0  0  0  0
 14138  4  0  0  0  0
137138  3  0  0  0  0
137139  4  0  0  0  0
139140  3  0  0  0  0
141142  3  0  0  0  0
141143  4  0  0  0  0
 82144  4  0  0  0  0
143144  3  0  0  0  0
140146  4  0  0  0  0
146147  4  0  0  0  0
147148  4  0  0  0  0
148149  2  0  0  0  0
149150  4  0  0  0  0
145151  1  0  0  0  0
147151  4  0  0  0  0
150151  4  0  0  0  0
150152  4  0  0  0  0
152153  4  0  0  0  0
153154  4  0  0  0  0
154155  2  0  0  0  0
145156  1  0  0  0  0
153156  4  0  0  0  0
155157  4  0  0  0  0
156157  4  0  0  0  0
142158  4  0  0  0  0
157158  4  0  0  0  0
158159  4  0  0  0  0
159160  4  0  0  0  0
160161  2  0  0  0  0
161162  4  0  0  0  0
162163  4  0  0  0  0
163164  1  0  0  0  0
164165  4  0  0  0  0
165166  4  0  0  0  0
166167  1  0  0  0  0
166168  4  0  0  0  0
168169  4  0  0  0  0
169170  1  0  0  0  0
164171  4  0  0  0  0
169171  4  0  0  0  0
163172  4  0  0  0  0
172173  4  0  0  0  0
173174  2  0  0  0  0
146175  4  0  0  0  0
174175  4  0  0  0  0
145176  1  0  0  0  0
172176  4  0  0  0  0
175176  4  0  0  0  0
145177  1  0  0  0  0
159177  4  0  0  0  0
162177  4  0  0  0  0
152178  1  0  0  0  0
178179  4  0  0  0  0
179180  4  0  0  0  0
180181  1  0  0  0  0
180182  4  0  0  0  0
182183  4  0  0  0  0
183184  1  0  0  0  0
178185  4  0  0  0  0
183185  4  0  0  0  0
148186  1  0  0  0  0
149187  1  0  0  0  0
154188  1  0  0  0  0
155189  1  0  0  0  0
160190  1  0  0  0  0
161191  1  0  0  0  0
165192  1  0  0  0  0
167193  1  0  0  0  0
167194  1  0  0  0  0
167195  1  0  0  0  0
168196  1  0  0  0  0
170197  1  0  0  0  0
170198  1  0  0  0  0
170199  1  0  0  0  0
171200  1  0  0  0  0
173201  1  0  0  0  0
174202  1  0  0  0  0
179203  1  0  0  0  0
181204  1  0  0  0  0
181205  1  0  0  0  0
181206  1  0  0  0  0
182207  1  0  0  0  0
184208  1  0  0  0  0
184209  1  0  0  0  0
184210  1  0  0  0  0
185211  1  0  0  0  0
M  END
