 xtb: 6.5.1 (b24c23e)
          07302210563D

132151  0     0  0            999 V2000
   17.0220    0.0353    0.0561 Ni  0  0  0  0  0  0  0  0  0  0  0  0
   13.6315    0.1363    0.1004 C   0  0  0  0  0  0  0  0  0  0  0  0
   14.2814   -0.3068    1.2334 C   0  0  0  0  0  0  0  0  0  0  0  0
   13.6036   -0.7552    2.4115 C   0  0  0  0  0  0  0  0  0  0  0  0
   14.5590   -1.0124    3.3349 C   0  0  0  0  0  0  0  0  0  0  0  0
   15.8197   -0.7075    2.7231 C   0  0  0  0  0  0  0  0  0  0  0  0
   15.6411   -0.3136    1.4210 N   0  0  0  0  0  0  0  0  0  0  0  0
   17.0380   -0.7571    3.3881 C   0  0  0  0  0  0  0  0  0  0  0  0
   17.0473   -1.1034    4.8292 C   0  0  0  0  0  0  0  0  0  0  0  0
   16.3971   -0.2841    5.7552 C   0  0  0  0  0  0  0  0  0  0  0  0
   16.4055   -0.6026    7.1032 C   0  0  0  0  0  0  0  0  0  0  0  0
   17.0645   -1.7511    7.5110 C   0  0  0  0  0  0  0  0  0  0  0  0
   17.0841   -2.1570    9.2164 S   0  0  0  0  0  0  0  0  0  0  0  0
   16.8749   -0.9890   10.0201 O   0  0  0  0  0  0  0  0  0  0  0  0
   15.7298   -3.0527    9.2597 O   0  0  0  0  0  0  0  0  0  0  0  0
   18.1940   -3.0100    9.5249 O   0  0  0  0  0  0  0  0  0  0  0  0
   17.7198   -2.5821    6.6169 C   0  0  0  0  0  0  0  0  0  0  0  0
   17.7100   -2.2508    5.2720 C   0  0  0  0  0  0  0  0  0  0  0  0
   18.2485   -0.4923    2.7611 C   0  0  0  0  0  0  0  0  0  0  0  0
   19.5097   -0.4722    3.4383 C   0  0  0  0  0  0  0  0  0  0  0  0
   20.4576   -0.2671    2.4926 C   0  0  0  0  0  0  0  0  0  0  0  0
   18.4199   -0.2578    1.4160 N   0  0  0  0  0  0  0  0  0  0  0  0
   19.7732   -0.1553    1.2439 C   0  0  0  0  0  0  0  0  0  0  0  0
   20.4327   -0.0393    0.0177 C   0  0  0  0  0  0  0  0  0  0  0  0
   19.7514    0.0971   -1.1946 C   0  0  0  0  0  0  0  0  0  0  0  0
   20.4114    0.1694   -2.4591 C   0  0  0  0  0  0  0  0  0  0  0  0
   19.4515    0.4043   -3.3857 C   0  0  0  0  0  0  0  0  0  0  0  0
   18.2082    0.4861   -2.6805 C   0  0  0  0  0  0  0  0  0  0  0  0
   18.4001    0.2549   -1.3375 N   0  0  0  0  0  0  0  0  0  0  0  0
   16.9978    0.8076   -3.2809 C   0  0  0  0  0  0  0  0  0  0  0  0
   16.9899    1.1434   -4.7243 C   0  0  0  0  0  0  0  0  0  0  0  0
   16.2637    0.3621   -5.6262 C   0  0  0  0  0  0  0  0  0  0  0  0
   16.2535    0.6729   -6.9761 C   0  0  0  0  0  0  0  0  0  0  0  0
   16.9738    1.7734   -7.4109 C   0  0  0  0  0  0  0  0  0  0  0  0
   16.9512    2.1816   -9.1167 S   0  0  0  0  0  0  0  0  0  0  0  0
   17.2271    3.5745   -9.3173 O   0  0  0  0  0  0  0  0  0  0  0  0
   18.2667    1.3545   -9.5872 O   0  0  0  0  0  0  0  0  0  0  0  0
   15.7989    1.6106   -9.7464 O   0  0  0  0  0  0  0  0  0  0  0  0
   17.6993    2.5702   -6.5399 C   0  0  0  0  0  0  0  0  0  0  0  0
   17.7062    2.2478   -5.1929 C   0  0  0  0  0  0  0  0  0  0  0  0
   15.7962    0.8313   -2.5846 C   0  0  0  0  0  0  0  0  0  0  0  0
   14.5403    1.2094   -3.1648 C   0  0  0  0  0  0  0  0  0  0  0  0
   13.5966    1.0191   -2.2137 C   0  0  0  0  0  0  0  0  0  0  0  0
   14.2772    0.5360   -1.0510 C   0  0  0  0  0  0  0  0  0  0  0  0
   15.6292    0.4573   -1.2752 N   0  0  0  0  0  0  0  0  0  0  0  0
   12.5485    0.1705    0.1149 H   0  0  0  0  0  0  0  0  0  0  0  0
   12.5336   -0.8539    2.5006 H   0  0  0  0  0  0  0  0  0  0  0  0
   14.4351   -1.3781    4.3412 H   0  0  0  0  0  0  0  0  0  0  0  0
   15.8970    0.6156    5.4162 H   0  0  0  0  0  0  0  0  0  0  0  0
   15.9148    0.0309    7.8314 H   0  0  0  0  0  0  0  0  0  0  0  0
   15.5804   -3.3893   10.1516 H   0  0  0  0  0  0  0  0  0  0  0  0
   18.2300   -3.4688    6.9715 H   0  0  0  0  0  0  0  0  0  0  0  0
   18.2088   -2.8917    4.5543 H   0  0  0  0  0  0  0  0  0  0  0  0
   19.6420   -0.5934    4.5010 H   0  0  0  0  0  0  0  0  0  0  0  0
   21.5265   -0.1974    2.6136 H   0  0  0  0  0  0  0  0  0  0  0  0
   21.4734    0.0531   -2.6033 H   0  0  0  0  0  0  0  0  0  0  0  0
   19.5648    0.5090   -4.4523 H   0  0  0  0  0  0  0  0  0  0  0  0
   15.7151   -0.5008   -5.2670 H   0  0  0  0  0  0  0  0  0  0  0  0
   15.6936    0.0748   -7.6840 H   0  0  0  0  0  0  0  0  0  0  0  0
   18.6112    1.7168  -10.4124 H   0  0  0  0  0  0  0  0  0  0  0  0
   18.2413    3.4305   -6.9120 H   0  0  0  0  0  0  0  0  0  0  0  0
   18.2574    2.8648   -4.4929 H   0  0  0  0  0  0  0  0  0  0  0  0
   14.4114    1.5759   -4.1702 H   0  0  0  0  0  0  0  0  0  0  0  0
   12.5328    1.1842   -2.2745 H   0  0  0  0  0  0  0  0  0  0  0  0
   30.4478    0.0535   -0.0390 Ni  0  0  0  0  0  0  0  0  0  0  0  0
   33.8383    0.1636   -0.0430 C   0  0  0  0  0  0  0  0  0  0  0  0
   33.1883    0.1705   -1.2595 C   0  0  0  0  0  0  0  0  0  0  0  0
   33.8660    0.1893   -2.5200 C   0  0  0  0  0  0  0  0  0  0  0  0
   32.9106    0.2914   -3.4730 C   0  0  0  0  0  0  0  0  0  0  0  0
   31.6499    0.3485   -2.7918 C   0  0  0  0  0  0  0  0  0  0  0  0
   31.8286    0.2335   -1.4363 N   0  0  0  0  0  0  0  0  0  0  0  0
   30.4316    0.5479   -3.4280 C   0  0  0  0  0  0  0  0  0  0  0  0
   30.4222    0.7584   -4.8951 C   0  0  0  0  0  0  0  0  0  0  0  0
   31.0723    1.8619   -5.4530 C   0  0  0  0  0  0  0  0  0  0  0  0
   31.0640    2.0637   -6.8234 C   0  0  0  0  0  0  0  0  0  0  0  0
   30.4052    1.1470   -7.6265 C   0  0  0  0  0  0  0  0  0  0  0  0
   30.3859    1.3994   -9.3613 S   0  0  0  0  0  0  0  0  0  0  0  0
   30.5951    2.7817   -9.6769 O   0  0  0  0  0  0  0  0  0  0  0  0
   31.7403    0.5831   -9.7320 O   0  0  0  0  0  0  0  0  0  0  0  0
   29.2761    0.7205   -9.9630 O   0  0  0  0  0  0  0  0  0  0  0  0
   29.7501    0.0444   -7.1025 C   0  0  0  0  0  0  0  0  0  0  0  0
   29.7598   -0.1444   -5.7304 C   0  0  0  0  0  0  0  0  0  0  0  0
   29.2211    0.5621   -2.7475 C   0  0  0  0  0  0  0  0  0  0  0  0
   27.9598    0.8307   -3.3694 C   0  0  0  0  0  0  0  0  0  0  0  0
   27.0120    0.6720   -2.4148 C   0  0  0  0  0  0  0  0  0  0  0  0
   29.0497    0.2832   -1.4110 N   0  0  0  0  0  0  0  0  0  0  0  0
   27.6964    0.3149   -1.2131 C   0  0  0  0  0  0  0  0  0  0  0  0
   27.0369   -0.0299   -0.0306 C   0  0  0  0  0  0  0  0  0  0  0  0
   27.7183   -0.3509    1.1463 C   0  0  0  0  0  0  0  0  0  0  0  0
   27.0583   -0.7507    2.3482 C   0  0  0  0  0  0  0  0  0  0  0  0
   28.0183   -0.8751    3.2958 C   0  0  0  0  0  0  0  0  0  0  0  0
   29.2616   -0.5389    2.6705 C   0  0  0  0  0  0  0  0  0  0  0  0
   29.0697   -0.2575    1.3373 N   0  0  0  0  0  0  0  0  0  0  0  0
   30.4721   -0.4620    3.3471 C   0  0  0  0  0  0  0  0  0  0  0  0
   30.4800   -0.6828    4.8126 C   0  0  0  0  0  0  0  0  0  0  0  0
   31.2061   -1.7419    5.3625 C   0  0  0  0  0  0  0  0  0  0  0  0
   31.2163   -1.9511    6.7318 C   0  0  0  0  0  0  0  0  0  0  0  0
   30.4961   -1.0885    7.5420 C   0  0  0  0  0  0  0  0  0  0  0  0
   30.5183   -1.3399    9.2778 S   0  0  0  0  0  0  0  0  0  0  0  0
   30.2424   -0.1202    9.9798 O   0  0  0  0  0  0  0  0  0  0  0  0
   29.2027   -2.2821    9.4090 O   0  0  0  0  0  0  0  0  0  0  0  0
   31.6705   -2.1036    9.6513 O   0  0  0  0  0  0  0  0  0  0  0  0
   29.7709   -0.0265    7.0266 C   0  0  0  0  0  0  0  0  0  0  0  0
   29.7641    0.1710    5.6557 C   0  0  0  0  0  0  0  0  0  0  0  0
   31.6738   -0.1828    2.7089 C   0  0  0  0  0  0  0  0  0  0  0  0
   32.9296   -0.0457    3.3876 C   0  0  0  0  0  0  0  0  0  0  0  0
   33.8733    0.1289    2.4335 C   0  0  0  0  0  0  0  0  0  0  0  0
   33.1927    0.1095    1.1746 C   0  0  0  0  0  0  0  0  0  0  0  0
   31.8407   -0.0465    1.3538 N   0  0  0  0  0  0  0  0  0  0  0  0
   34.9213    0.2008   -0.0439 H   0  0  0  0  0  0  0  0  0  0  0  0
   34.9360    0.1305   -2.6394 H   0  0  0  0  0  0  0  0  0  0  0  0
   33.0345    0.3235   -4.5432 H   0  0  0  0  0  0  0  0  0  0  0  0
   31.5722    2.5729   -4.8057 H   0  0  0  0  0  0  0  0  0  0  0  0
   31.5547    2.9214   -7.2660 H   0  0  0  0  0  0  0  0  0  0  0  0
   31.8898    0.5997  -10.6852 H   0  0  0  0  0  0  0  0  0  0  0  0
   29.2400   -0.6488   -7.7596 H   0  0  0  0  0  0  0  0  0  0  0  0
   29.2611   -1.0051   -5.3002 H   0  0  0  0  0  0  0  0  0  0  0  0
   27.8274    1.1106   -4.4017 H   0  0  0  0  0  0  0  0  0  0  0  0
   25.9431    0.7815   -2.5014 H   0  0  0  0  0  0  0  0  0  0  0  0
   25.9963   -0.9115    2.4393 H   0  0  0  0  0  0  0  0  0  0  0  0
   27.9050   -1.1719    4.3256 H   0  0  0  0  0  0  0  0  0  0  0  0
   31.7545   -2.4114    4.7102 H   0  0  0  0  0  0  0  0  0  0  0  0
   31.7760   -2.7683    7.1691 H   0  0  0  0  0  0  0  0  0  0  0  0
   28.8551   -2.2472   10.3084 H   0  0  0  0  0  0  0  0  0  0  0  0
   29.2290    0.6360    7.6899 H   0  0  0  0  0  0  0  0  0  0  0  0
   29.2131    1.0029    5.2327 H   0  0  0  0  0  0  0  0  0  0  0  0
   33.0585   -0.0766    4.4573 H   0  0  0  0  0  0  0  0  0  0  0  0
   34.9370    0.2601    2.5509 H   0  0  0  0  0  0  0  0  0  0  0  0
   23.0595   -0.0659   -0.0085 C   0  0  0  0  0  0  0  0  0  0  0  0
   21.8384   -0.0574    0.0034 C   0  0  0  0  0  0  0  0  0  0  0  0
   24.4101   -0.0635   -0.0175 C   0  0  0  0  0  0  0  0  0  0  0  0
   25.6312   -0.0524   -0.0242 C   0  0  0  0  0  0  0  0  0  0  0  0
  2  3  4  0  0  0  0
  3  4  4  0  0  0  0
  4  5  2  0  0  0  0
  5  6  4  0  0  0  0
  1  7  1  0  0  0  0
  3  7  4  0  0  0  0
  6  7  4  0  0  0  0
  6  8  4  0  0  0  0
  8  9  1  0  0  0  0
  9 10  4  0  0  0  0
 10 11  4  0  0  0  0
 11 12  4  0  0  0  0
 12 13  1  0  0  0  0
 13 14  2  0  0  0  0
 13 15  1  0  0  0  0
 13 16  2  0  0  0  0
 12 17  4  0  0  0  0
  9 18  4  0  0  0  0
 17 18  4  0  0  0  0
  8 19  4  0  0  0  0
 19 20  4  0  0  0  0
 20 21  2  0  0  0  0
  1 22  1  0  0  0  0
 19 22  4  0  0  0  0
 21 23  4  0  0  0  0
 22 23  4  0  0  0  0
 23 24  4  0  0  0  0
 24 25  4  0  0  0  0
 25 26  4  0  0  0  0
 26 27  2  0  0  0  0
 27 28  4  0  0  0  0
  1 29  1  0  0  0  0
 25 29  4  0  0  0  0
 28 29  4  0  0  0  0
 28 30  4  0  0  0  0
 30 31  1  0  0  0  0
 31 32  4  0  0  0  0
 32 33  4  0  0  0  0
 33 34  4  0  0  0  0
 34 35  1  0  0  0  0
 35 36  2  0  0  0  0
 35 37  1  0  0  0  0
 35 38  2  0  0  0  0
 34 39  4  0  0  0  0
 31 40  4  0  0  0  0
 39 40  4  0  0  0  0
 30 41  4  0  0  0  0
 41 42  4  0  0  0  0
 42 43  2  0  0  0  0
  2 44  4  0  0  0  0
 43 44  4  0  0  0  0
  1 45  1  0  0  0  0
 41 45  4  0  0  0  0
 44 45  4  0  0  0  0
  2 46  1  0  0  0  0
  4 47  1  0  0  0  0
  5 48  1  0  0  0  0
 10 49  1  0  0  0  0
 11 50  1  0  0  0  0
 15 51  1  0  0  0  0
 17 52  1  0  0  0  0
 18 53  1  0  0  0  0
 20 54  1  0  0  0  0
 21 55  1  0  0  0  0
 26 56  1  0  0  0  0
 27 57  1  0  0  0  0
 32 58  1  0  0  0  0
 33 59  1  0  0  0  0
 37 60  1  0  0  0  0
 39 61  1  0  0  0  0
 40 62  1  0  0  0  0
 42 63  1  0  0  0  0
 43 64  1  0  0  0  0
 66 67  4  0  0  0  0
 67 68  4  0  0  0  0
 68 69  2  0  0  0  0
 69 70  4  0  0  0  0
 65 71  1  0  0  0  0
 67 71  4  0  0  0  0
 70 71  4  0  0  0  0
 70 72  4  0  0  0  0
 72 73  1  0  0  0  0
 73 74  4  0  0  0  0
 74 75  4  0  0  0  0
 75 76  4  0  0  0  0
 76 77  1  0  0  0  0
 77 78  2  0  0  0  0
 77 79  1  0  0  0  0
 77 80  2  0  0  0  0
 76 81  4  0  0  0  0
 73 82  4  0  0  0  0
 81 82  4  0  0  0  0
 72 83  4  0  0  0  0
 83 84  4  0  0  0  0
 84 85  2  0  0  0  0
 65 86  1  0  0  0  0
 83 86  4  0  0  0  0
 85 87  4  0  0  0  0
 86 87  4  0  0  0  0
 87 88  4  0  0  0  0
 88 89  4  0  0  0  0
 89 90  4  0  0  0  0
 90 91  2  0  0  0  0
 91 92  4  0  0  0  0
 65 93  1  0  0  0  0
 89 93  4  0  0  0  0
 92 93  4  0  0  0  0
 92 94  4  0  0  0  0
 94 95  1  0  0  0  0
 95 96  4  0  0  0  0
 96 97  4  0  0  0  0
 97 98  4  0  0  0  0
 98 99  1  0  0  0  0
 99100  2  0  0  0  0
 99101  1  0  0  0  0
 99102  2  0  0  0  0
 98103  4  0  0  0  0
 95104  4  0  0  0  0
103104  4  0  0  0  0
 94105  4  0  0  0  0
105106  4  0  0  0  0
106107  2  0  0  0  0
 66108  4  0  0  0  0
107108  4  0  0  0  0
 65109  1  0  0  0  0
105109  4  0  0  0  0
108109  4  0  0  0  0
 66110  1  0  0  0  0
 68111  1  0  0  0  0
 69112  1  0  0  0  0
 74113  1  0  0  0  0
 75114  1  0  0  0  0
 79115  1  0  0  0  0
 81116  1  0  0  0  0
 82117  1  0  0  0  0
 84118  1  0  0  0  0
 85119  1  0  0  0  0
 90120  1  0  0  0  0
 91121  1  0  0  0  0
 96122  1  0  0  0  0
 97123  1  0  0  0  0
101124  1  0  0  0  0
103125  1  0  0  0  0
104126  1  0  0  0  0
106127  1  0  0  0  0
107128  1  0  0  0  0
 24130  4  0  0  0  0
129130  3  0  0  0  0
129131  4  0  0  0  0
 88132  4  0  0  0  0
131132  3  0  0  0  0
M  END
