 xtb: 6.5.1 (b24c23e)
          07292217583D

298337  0     0  0            999 V2000
   46.8207    0.1744   -0.1247 Fe  0  0  0  0  0  0  0  0  0  0  0  0
   43.4602    0.4913   -0.3952 C   0  0  0  0  0  0  0  0  0  0  0  0
   44.1081    1.2738    0.5384 C   0  0  0  0  0  0  0  0  0  0  0  0
   43.4330    2.1949    1.4030 C   0  0  0  0  0  0  0  0  0  0  0  0
   44.3663    2.6828    2.2536 C   0  0  0  0  0  0  0  0  0  0  0  0
   45.6145    2.0762    1.8932 C   0  0  0  0  0  0  0  0  0  0  0  0
   45.4443    1.2224    0.8375 N   0  0  0  0  0  0  0  0  0  0  0  0
   46.8119    2.3088    2.5596 C   0  0  0  0  0  0  0  0  0  0  0  0
   48.0182    1.7606    2.1543 C   0  0  0  0  0  0  0  0  0  0  0  0
   49.2766    2.0660    2.7675 C   0  0  0  0  0  0  0  0  0  0  0  0
   50.2330    1.4710    2.0153 C   0  0  0  0  0  0  0  0  0  0  0  0
   48.2070    0.9561    1.0550 N   0  0  0  0  0  0  0  0  0  0  0  0
   49.5553    0.7916    0.9549 C   0  0  0  0  0  0  0  0  0  0  0  0
   50.2236    0.0807   -0.0497 C   0  0  0  0  0  0  0  0  0  0  0  0
   49.5566   -0.6660   -1.0285 C   0  0  0  0  0  0  0  0  0  0  0  0
   50.2390   -1.4865   -1.9808 C   0  0  0  0  0  0  0  0  0  0  0  0
   49.2849   -2.1658   -2.6606 C   0  0  0  0  0  0  0  0  0  0  0  0
   48.0208   -1.7361   -2.1414 C   0  0  0  0  0  0  0  0  0  0  0  0
   46.7983   -2.2173   -2.5828 C   0  0  0  0  0  0  0  0  0  0  0  0
   46.7817   -3.2806   -3.6252 C   0  0  0  0  0  0  0  0  0  0  0  0
   47.1698   -2.9966   -4.9412 C   0  0  0  0  0  0  0  0  0  0  0  0
   47.5406   -1.7123   -5.1866 O   0  0  0  0  0  0  0  0  0  0  0  0
   47.9579   -1.3209   -6.4787 C   0  0  0  0  0  0  0  0  0  0  0  0
   47.1518   -3.9968   -5.9127 C   0  0  0  0  0  0  0  0  0  0  0  0
   46.7493   -5.2771   -5.5635 C   0  0  0  0  0  0  0  0  0  0  0  0
   46.3597   -5.5811   -4.2679 C   0  0  0  0  0  0  0  0  0  0  0  0
   46.3722   -4.5797   -3.2973 C   0  0  0  0  0  0  0  0  0  0  0  0
   46.0126   -4.7785   -2.0022 O   0  0  0  0  0  0  0  0  0  0  0  0
   45.5823   -6.0516   -1.5653 C   0  0  0  0  0  0  0  0  0  0  0  0
   45.5825   -1.7241   -2.1241 C   0  0  0  0  0  0  0  0  0  0  0  0
   44.3108   -2.1251   -2.6519 C   0  0  0  0  0  0  0  0  0  0  0  0
   43.3781   -1.3351   -2.0698 C   0  0  0  0  0  0  0  0  0  0  0  0
   44.0793   -0.4649   -1.1742 C   0  0  0  0  0  0  0  0  0  0  0  0
   45.4245   -0.7210   -1.2068 N   0  0  0  0  0  0  0  0  0  0  0  0
   48.2064   -0.8102   -1.1420 N   0  0  0  0  0  0  0  0  0  0  0  0
   46.8087    3.2214    3.7366 C   0  0  0  0  0  0  0  0  0  0  0  0
   46.9990    2.7116    5.0274 C   0  0  0  0  0  0  0  0  0  0  0  0
   47.1684    1.3662    5.1148 O   0  0  0  0  0  0  0  0  0  0  0  0
   47.3677    0.7500    6.3707 C   0  0  0  0  0  0  0  0  0  0  0  0
   46.9982    3.5661    6.1297 C   0  0  0  0  0  0  0  0  0  0  0  0
   46.8158    4.9269    5.9352 C   0  0  0  0  0  0  0  0  0  0  0  0
   46.6320    5.4547    4.6661 C   0  0  0  0  0  0  0  0  0  0  0  0
   46.6261    4.5998    3.5644 C   0  0  0  0  0  0  0  0  0  0  0  0
   46.4611    5.0206    2.2827 O   0  0  0  0  0  0  0  0  0  0  0  0
   46.2712    6.3915    1.9974 C   0  0  0  0  0  0  0  0  0  0  0  0
   42.3872    0.6102   -0.4976 H   0  0  0  0  0  0  0  0  0  0  0  0
   42.3775    2.4131    1.3589 H   0  0  0  0  0  0  0  0  0  0  0  0
   44.2362    3.3915    3.0553 H   0  0  0  0  0  0  0  0  0  0  0  0
   49.4002    2.6720    3.6503 H   0  0  0  0  0  0  0  0  0  0  0  0
   51.3024    1.4803    2.1528 H   0  0  0  0  0  0  0  0  0  0  0  0
   51.3106   -1.5398   -2.0882 H   0  0  0  0  0  0  0  0  0  0  0  0
   49.4141   -2.8904   -3.4478 H   0  0  0  0  0  0  0  0  0  0  0  0
   47.1594   -1.4580   -7.2179 H   0  0  0  0  0  0  0  0  0  0  0  0
   48.2040   -0.2596   -6.4096 H   0  0  0  0  0  0  0  0  0  0  0  0
   48.8476   -1.8765   -6.7991 H   0  0  0  0  0  0  0  0  0  0  0  0
   47.4472   -3.7873   -6.9321 H   0  0  0  0  0  0  0  0  0  0  0  0
   46.7381   -6.0554   -6.3186 H   0  0  0  0  0  0  0  0  0  0  0  0
   46.0510   -6.5887   -4.0236 H   0  0  0  0  0  0  0  0  0  0  0  0
   45.3442   -5.9443   -0.5054 H   0  0  0  0  0  0  0  0  0  0  0  0
   44.6851   -6.3795   -2.1043 H   0  0  0  0  0  0  0  0  0  0  0  0
   46.3710   -6.8046   -1.6828 H   0  0  0  0  0  0  0  0  0  0  0  0
   44.1671   -2.9021   -3.3853 H   0  0  0  0  0  0  0  0  0  0  0  0
   42.3095   -1.3292   -2.2173 H   0  0  0  0  0  0  0  0  0  0  0  0
   47.4789   -0.3173    6.1712 H   0  0  0  0  0  0  0  0  0  0  0  0
   46.5089    0.9047    7.0351 H   0  0  0  0  0  0  0  0  0  0  0  0
   48.2762    1.1212    6.8607 H   0  0  0  0  0  0  0  0  0  0  0  0
   47.1392    3.1823    7.1312 H   0  0  0  0  0  0  0  0  0  0  0  0
   46.8179    5.5915    6.7921 H   0  0  0  0  0  0  0  0  0  0  0  0
   46.4962    6.5209    4.5435 H   0  0  0  0  0  0  0  0  0  0  0  0
   47.1363    6.9900    2.3079 H   0  0  0  0  0  0  0  0  0  0  0  0
   46.1560    6.4631    0.9143 H   0  0  0  0  0  0  0  0  0  0  0  0
   45.3680    6.7817    2.4821 H   0  0  0  0  0  0  0  0  0  0  0  0
   87.0412    0.0895   -0.1461 Fe  0  0  0  0  0  0  0  0  0  0  0  0
   90.4087    0.3936   -0.3539 C   0  0  0  0  0  0  0  0  0  0  0  0
   89.7848   -0.4648   -1.2365 C   0  0  0  0  0  0  0  0  0  0  0  0
   90.4842   -1.2570   -2.2032 C   0  0  0  0  0  0  0  0  0  0  0  0
   89.5439   -1.9386   -2.8991 C   0  0  0  0  0  0  0  0  0  0  0  0
   88.2700   -1.5420   -2.3736 C   0  0  0  0  0  0  0  0  0  0  0  0
   88.4337   -0.6669   -1.3337 N   0  0  0  0  0  0  0  0  0  0  0  0
   87.0509   -1.9378   -2.9105 C   0  0  0  0  0  0  0  0  0  0  0  0
   85.8327   -1.5010   -2.4135 C   0  0  0  0  0  0  0  0  0  0  0  0
   84.5702   -1.7974   -3.0220 C   0  0  0  0  0  0  0  0  0  0  0  0
   83.6179   -1.2277   -2.2452 C   0  0  0  0  0  0  0  0  0  0  0  0
   85.6500   -0.7404   -1.2835 N   0  0  0  0  0  0  0  0  0  0  0  0
   84.3008   -0.5965   -1.1586 C   0  0  0  0  0  0  0  0  0  0  0  0
   83.6368   -0.0181   -0.0697 C   0  0  0  0  0  0  0  0  0  0  0  0
   84.3111    0.5433    1.0224 C   0  0  0  0  0  0  0  0  0  0  0  0
   83.6422    1.0435    2.1833 C   0  0  0  0  0  0  0  0  0  0  0  0
   84.6006    1.5568    2.9912 C   0  0  0  0  0  0  0  0  0  0  0  0
   85.8499    1.3870    2.3108 C   0  0  0  0  0  0  0  0  0  0  0  0
   87.0554    1.8926    2.7697 C   0  0  0  0  0  0  0  0  0  0  0  0
   87.0680    2.6629    4.0436 C   0  0  0  0  0  0  0  0  0  0  0  0
   86.4588    3.9229    4.1177 C   0  0  0  0  0  0  0  0  0  0  0  0
   85.8864    4.3741    2.9711 O   0  0  0  0  0  0  0  0  0  0  0  0
   85.2402    5.6305    2.9379 C   0  0  0  0  0  0  0  0  0  0  0  0
   86.4730    4.6436    5.3115 C   0  0  0  0  0  0  0  0  0  0  0  0
   87.0923    4.1001    6.4268 C   0  0  0  0  0  0  0  0  0  0  0  0
   87.7016    2.8555    6.3773 C   0  0  0  0  0  0  0  0  0  0  0  0
   87.6928    2.1367    5.1822 C   0  0  0  0  0  0  0  0  0  0  0  0
   88.2561    0.9090    5.0358 O   0  0  0  0  0  0  0  0  0  0  0  0
   88.9137    0.2885    6.1218 C   0  0  0  0  0  0  0  0  0  0  0  0
   88.2513    1.7384    2.0775 C   0  0  0  0  0  0  0  0  0  0  0  0
   89.4919    2.3322    2.4827 C   0  0  0  0  0  0  0  0  0  0  0  0
   90.4276    1.9332    1.5892 C   0  0  0  0  0  0  0  0  0  0  0  0
   89.7586    1.0897    0.6444 C   0  0  0  0  0  0  0  0  0  0  0  0
   88.4228    1.0021    0.9377 N   0  0  0  0  0  0  0  0  0  0  0  0
   85.6569    0.7283    1.1189 N   0  0  0  0  0  0  0  0  0  0  0  0
   87.0467   -2.8473   -4.0889 C   0  0  0  0  0  0  0  0  0  0  0  0
   86.5737   -4.1605   -3.9607 C   0  0  0  0  0  0  0  0  0  0  0  0
   86.1535   -4.5209   -2.7203 O   0  0  0  0  0  0  0  0  0  0  0  0
   85.6465   -5.8185   -2.4830 C   0  0  0  0  0  0  0  0  0  0  0  0
   86.5642   -5.0172   -5.0610 C   0  0  0  0  0  0  0  0  0  0  0  0
   87.0202   -4.5555   -6.2863 C   0  0  0  0  0  0  0  0  0  0  0  0
   87.4877   -3.2588   -6.4384 C   0  0  0  0  0  0  0  0  0  0  0  0
   87.5029   -2.4033   -5.3372 C   0  0  0  0  0  0  0  0  0  0  0  0
   87.9314   -1.1146   -5.3894 O   0  0  0  0  0  0  0  0  0  0  0  0
   88.4197   -0.5702   -6.5984 C   0  0  0  0  0  0  0  0  0  0  0  0
   91.4846    0.5052   -0.4311 H   0  0  0  0  0  0  0  0  0  0  0  0
   91.5569   -1.2796   -2.3147 H   0  0  0  0  0  0  0  0  0  0  0  0
   89.6848   -2.6389   -3.7065 H   0  0  0  0  0  0  0  0  0  0  0  0
   84.4426   -2.3650   -3.9295 H   0  0  0  0  0  0  0  0  0  0  0  0
   82.5475   -1.2354   -2.3754 H   0  0  0  0  0  0  0  0  0  0  0  0
   82.5772    0.9966    2.3453 H   0  0  0  0  0  0  0  0  0  0  0  0
   84.4836    2.0210    3.9569 H   0  0  0  0  0  0  0  0  0  0  0  0
   85.9364    6.4467    3.1659 H   0  0  0  0  0  0  0  0  0  0  0  0
   84.8661    5.7524    1.9197 H   0  0  0  0  0  0  0  0  0  0  0  0
   84.3968    5.6671    3.6382 H   0  0  0  0  0  0  0  0  0  0  0  0
   86.0083    5.6182    5.3781 H   0  0  0  0  0  0  0  0  0  0  0  0
   87.1008    4.6597    7.3558 H   0  0  0  0  0  0  0  0  0  0  0  0
   88.1762    2.4557    7.2633 H   0  0  0  0  0  0  0  0  0  0  0  0
   89.2818   -0.6684    5.7473 H   0  0  0  0  0  0  0  0  0  0  0  0
   89.7623    0.8880    6.4733 H   0  0  0  0  0  0  0  0  0  0  0  0
   88.2268    0.1080    6.9576 H   0  0  0  0  0  0  0  0  0  0  0  0
   89.6151    2.9712    3.3422 H   0  0  0  0  0  0  0  0  0  0  0  0
   91.4800    2.1687    1.5610 H   0  0  0  0  0  0  0  0  0  0  0  0
   85.3729   -5.8488   -1.4267 H   0  0  0  0  0  0  0  0  0  0  0  0
   86.4023   -6.5881   -2.6814 H   0  0  0  0  0  0  0  0  0  0  0  0
   84.7563   -6.0193   -3.0914 H   0  0  0  0  0  0  0  0  0  0  0  0
   86.2055   -6.0339   -4.9710 H   0  0  0  0  0  0  0  0  0  0  0  0
   87.0103   -5.2209   -7.1426 H   0  0  0  0  0  0  0  0  0  0  0  0
   87.8337   -2.9244   -7.4073 H   0  0  0  0  0  0  0  0  0  0  0  0
   87.6477   -0.5645   -7.3776 H   0  0  0  0  0  0  0  0  0  0  0  0
   88.7091    0.4580   -6.3734 H   0  0  0  0  0  0  0  0  0  0  0  0
   89.2968   -1.1197   -6.9614 H   0  0  0  0  0  0  0  0  0  0  0  0
   52.8485    0.0798   -0.0585 C   0  0  0  0  0  0  0  0  0  0  0  0
   51.6247    0.0803   -0.0496 C   0  0  0  0  0  0  0  0  0  0  0  0
   54.1948    0.0791   -0.0590 C   0  0  0  0  0  0  0  0  0  0  0  0
   55.4188    0.0733   -0.0639 C   0  0  0  0  0  0  0  0  0  0  0  0
   66.2627   -0.0100   -0.0033 C   0  0  0  0  0  0  0  0  0  0  0  0
   65.0376   -0.0103   -0.0086 C   0  0  0  0  0  0  0  0  0  0  0  0
   67.6066   -0.0099   -0.0019 C   0  0  0  0  0  0  0  0  0  0  0  0
   68.8317   -0.0079   -0.0018 C   0  0  0  0  0  0  0  0  0  0  0  0
   79.6670   -0.0448   -0.0358 C   0  0  0  0  0  0  0  0  0  0  0  0
   78.4427   -0.0465   -0.0287 C   0  0  0  0  0  0  0  0  0  0  0  0
   81.0126   -0.0389   -0.0457 C   0  0  0  0  0  0  0  0  0  0  0  0
   82.2368   -0.0308   -0.0559 C   0  0  0  0  0  0  0  0  0  0  0  0
   60.2293    0.0196   -0.0376 Fe  0  0  0  0  0  0  0  0  0  0  0  0
   56.8190    0.0609   -0.0583 C   0  0  0  0  0  0  0  0  0  0  0  0
   57.4839    0.2938    1.1527 C   0  0  0  0  0  0  0  0  0  0  0  0
   56.8029    0.5468    2.3835 C   0  0  0  0  0  0  0  0  0  0  0  0
   57.7513    0.5752    3.3513 C   0  0  0  0  0  0  0  0  0  0  0  0
   59.0077    0.3462    2.7046 C   0  0  0  0  0  0  0  0  0  0  0  0
   58.8290    0.2035    1.3506 N   0  0  0  0  0  0  0  0  0  0  0  0
   60.2089    0.1780    3.3813 C   0  0  0  0  0  0  0  0  0  0  0  0
   61.4186   -0.0404    2.7379 C   0  0  0  0  0  0  0  0  0  0  0  0
   62.6694   -0.1926    3.4179 C   0  0  0  0  0  0  0  0  0  0  0  0
   63.6304   -0.2357    2.4633 C   0  0  0  0  0  0  0  0  0  0  0  0
   61.6146   -0.0180    1.3778 N   0  0  0  0  0  0  0  0  0  0  0  0
   62.9619   -0.1082    1.2063 C   0  0  0  0  0  0  0  0  0  0  0  0
   63.6401   -0.0051   -0.0166 C   0  0  0  0  0  0  0  0  0  0  0  0
   62.9781    0.1009   -1.2482 C   0  0  0  0  0  0  0  0  0  0  0  0
   63.6639    0.2087   -2.4977 C   0  0  0  0  0  0  0  0  0  0  0  0
   62.7146    0.1693   -3.4639 C   0  0  0  0  0  0  0  0  0  0  0  0
   61.4531    0.0422   -2.7986 C   0  0  0  0  0  0  0  0  0  0  0  0
   60.2473   -0.1567   -3.4558 C   0  0  0  0  0  0  0  0  0  0  0  0
   60.2550   -0.2249   -4.9430 C   0  0  0  0  0  0  0  0  0  0  0  0
   60.0140   -1.4393   -5.5988 C   0  0  0  0  0  0  0  0  0  0  0  0
   59.7891   -2.5120   -4.7959 O   0  0  0  0  0  0  0  0  0  0  0  0
   59.5325   -3.7845   -5.3550 C   0  0  0  0  0  0  0  0  0  0  0  0
   60.0254   -1.5019   -6.9918 C   0  0  0  0  0  0  0  0  0  0  0  0
   60.2722   -0.3494   -7.7224 C   0  0  0  0  0  0  0  0  0  0  0  0
   60.5109    0.8639   -7.0949 C   0  0  0  0  0  0  0  0  0  0  0  0
   60.5053    0.9262   -5.7019 C   0  0  0  0  0  0  0  0  0  0  0  0
   60.7232    2.0662   -4.9957 O   0  0  0  0  0  0  0  0  0  0  0  0
   60.9792    3.2855   -5.6631 C   0  0  0  0  0  0  0  0  0  0  0  0
   59.0338   -0.2917   -2.7934 C   0  0  0  0  0  0  0  0  0  0  0  0
   57.7799   -0.4913   -3.4545 C   0  0  0  0  0  0  0  0  0  0  0  0
   56.8205   -0.4311   -2.4990 C   0  0  0  0  0  0  0  0  0  0  0  0
   57.4926   -0.1895   -1.2611 C   0  0  0  0  0  0  0  0  0  0  0  0
   58.8418   -0.1355   -1.4426 N   0  0  0  0  0  0  0  0  0  0  0  0
   61.6319    0.0276   -1.4360 N   0  0  0  0  0  0  0  0  0  0  0  0
   60.1988    0.2351    4.8690 C   0  0  0  0  0  0  0  0  0  0  0  0
   60.4065   -0.9284    5.6216 C   0  0  0  0  0  0  0  0  0  0  0  0
   60.6017   -2.0683    4.9089 O   0  0  0  0  0  0  0  0  0  0  0  0
   60.8129   -3.2998    5.5695 C   0  0  0  0  0  0  0  0  0  0  0  0
   60.3946   -0.8770    7.0151 C   0  0  0  0  0  0  0  0  0  0  0  0
   60.1818    0.3378    7.6490 C   0  0  0  0  0  0  0  0  0  0  0  0
   59.9773    1.5024    6.9246 C   0  0  0  0  0  0  0  0  0  0  0  0
   59.9825    1.4507    5.5311 C   0  0  0  0  0  0  0  0  0  0  0  0
   59.7973    2.5351    4.7337 O   0  0  0  0  0  0  0  0  0  0  0  0
   59.5607    3.8086    5.2993 C   0  0  0  0  0  0  0  0  0  0  0  0
   55.7363    0.6709    2.4808 H   0  0  0  0  0  0  0  0  0  0  0  0
   57.6209    0.7285    4.4100 H   0  0  0  0  0  0  0  0  0  0  0  0
   62.7874   -0.2474    4.4877 H   0  0  0  0  0  0  0  0  0  0  0  0
   64.6972   -0.3347    2.5840 H   0  0  0  0  0  0  0  0  0  0  0  0
   64.7334    0.2914   -2.6060 H   0  0  0  0  0  0  0  0  0  0  0  0
   62.8471    0.2125   -4.5325 H   0  0  0  0  0  0  0  0  0  0  0  0
   58.6278   -3.7756   -5.9750 H   0  0  0  0  0  0  0  0  0  0  0  0
   59.3829   -4.4616   -4.5121 H   0  0  0  0  0  0  0  0  0  0  0  0
   60.3797   -4.1379   -5.9551 H   0  0  0  0  0  0  0  0  0  0  0  0
   59.8444   -2.4352   -7.5079 H   0  0  0  0  0  0  0  0  0  0  0  0
   60.2790   -0.3979   -8.8058 H   0  0  0  0  0  0  0  0  0  0  0  0
   60.6993    1.7473   -7.6901 H   0  0  0  0  0  0  0  0  0  0  0  0
   61.1198    4.0350   -4.8822 H   0  0  0  0  0  0  0  0  0  0  0  0
   60.1351    3.5806   -6.2981 H   0  0  0  0  0  0  0  0  0  0  0  0
   61.8887    3.2262   -6.2733 H   0  0  0  0  0  0  0  0  0  0  0  0
   57.6586   -0.6477   -4.5138 H   0  0  0  0  0  0  0  0  0  0  0  0
   55.7521   -0.5268   -2.6090 H   0  0  0  0  0  0  0  0  0  0  0  0
   59.9516   -3.5755    6.1899 H   0  0  0  0  0  0  0  0  0  0  0  0
   60.9431   -4.0468    4.7843 H   0  0  0  0  0  0  0  0  0  0  0  0
   61.7148   -3.2718    6.1930 H   0  0  0  0  0  0  0  0  0  0  0  0
   60.5497   -1.7700    7.6057 H   0  0  0  0  0  0  0  0  0  0  0  0
   60.1755    0.3779    8.7328 H   0  0  0  0  0  0  0  0  0  0  0  0
   59.8160    2.4365    7.4457 H   0  0  0  0  0  0  0  0  0  0  0  0
   60.4082    4.1400    5.9115 H   0  0  0  0  0  0  0  0  0  0  0  0
   58.6490    3.8141    5.9089 H   0  0  0  0  0  0  0  0  0  0  0  0
   59.4348    4.4947    4.4598 H   0  0  0  0  0  0  0  0  0  0  0  0
   73.6363   -0.0159   -0.0131 Fe  0  0  0  0  0  0  0  0  0  0  0  0
   70.2289   -0.0071   -0.0041 C   0  0  0  0  0  0  0  0  0  0  0  0
   70.9041   -0.1526    1.2165 C   0  0  0  0  0  0  0  0  0  0  0  0
   70.2392   -0.3327    2.4689 C   0  0  0  0  0  0  0  0  0  0  0  0
   71.1975   -0.2796    3.4263 C   0  0  0  0  0  0  0  0  0  0  0  0
   72.4418   -0.0612    2.7530 C   0  0  0  0  0  0  0  0  0  0  0  0
   72.2485   -0.0322    1.3931 N   0  0  0  0  0  0  0  0  0  0  0  0
   73.6468    0.1786    3.3987 C   0  0  0  0  0  0  0  0  0  0  0  0
   74.8488    0.3411    2.7216 C   0  0  0  0  0  0  0  0  0  0  0  0
   76.0974    0.6312    3.3581 C   0  0  0  0  0  0  0  0  0  0  0  0
   77.0502    0.5701    2.3953 C   0  0  0  0  0  0  0  0  0  0  0  0
   75.0328    0.1558    1.3736 N   0  0  0  0  0  0  0  0  0  0  0  0
   76.3773    0.2502    1.1757 C   0  0  0  0  0  0  0  0  0  0  0  0
   77.0437   -0.0424   -0.0225 C   0  0  0  0  0  0  0  0  0  0  0  0
   76.3658   -0.3245   -1.2167 C   0  0  0  0  0  0  0  0  0  0  0  0
   77.0263   -0.6526   -2.4409 C   0  0  0  0  0  0  0  0  0  0  0  0
   76.0681   -0.6887   -3.3996 C   0  0  0  0  0  0  0  0  0  0  0  0
   74.8286   -0.3759   -2.7559 C   0  0  0  0  0  0  0  0  0  0  0  0
   73.6273   -0.1825   -3.4268 C   0  0  0  0  0  0  0  0  0  0  0  0
   73.6262   -0.2447   -4.9129 C   0  0  0  0  0  0  0  0  0  0  0  0
   72.9505   -1.2756   -5.5810 C   0  0  0  0  0  0  0  0  0  0  0  0
   72.3323   -2.1909   -4.7905 O   0  0  0  0  0  0  0  0  0  0  0  0
   71.6146   -3.2658   -5.3627 C   0  0  0  0  0  0  0  0  0  0  0  0
   72.9510   -1.3313   -6.9743 C   0  0  0  0  0  0  0  0  0  0  0  0
   73.6215   -0.3543   -7.6944 C   0  0  0  0  0  0  0  0  0  0  0  0
   74.2950    0.6758   -7.0558 C   0  0  0  0  0  0  0  0  0  0  0  0
   74.3002    0.7299   -5.6624 C   0  0  0  0  0  0  0  0  0  0  0  0
   74.9206    1.7045   -4.9485 O   0  0  0  0  0  0  0  0  0  0  0  0
   75.6429    2.7266   -5.6053 C   0  0  0  0  0  0  0  0  0  0  0  0
   72.4286    0.0659   -2.7724 C   0  0  0  0  0  0  0  0  0  0  0  0
   71.1825    0.3022   -3.4364 C   0  0  0  0  0  0  0  0  0  0  0  0
   70.2286    0.3433   -2.4741 C   0  0  0  0  0  0  0  0  0  0  0  0
   70.8985    0.1435   -1.2274 C   0  0  0  0  0  0  0  0  0  0  0  0
   72.2415    0.0201   -1.4119 N   0  0  0  0  0  0  0  0  0  0  0  0
   75.0222   -0.2036   -1.4077 N   0  0  0  0  0  0  0  0  0  0  0  0
   73.6506    0.2642    4.8840 C   0  0  0  0  0  0  0  0  0  0  0  0
   74.2919   -0.7195    5.6495 C   0  0  0  0  0  0  0  0  0  0  0  0
   74.8793   -1.7258    4.9517 O   0  0  0  0  0  0  0  0  0  0  0  0
   75.5595   -2.7652    5.6262 C   0  0  0  0  0  0  0  0  0  0  0  0
   74.2894   -0.6414    7.0418 C   0  0  0  0  0  0  0  0  0  0  0  0
   73.6528    0.4226    7.6625 C   0  0  0  0  0  0  0  0  0  0  0  0
   73.0154    1.4095    6.9259 C   0  0  0  0  0  0  0  0  0  0  0  0
   73.0106    1.3287    5.5338 C   0  0  0  0  0  0  0  0  0  0  0  0
   72.4215    2.2489    4.7270 O   0  0  0  0  0  0  0  0  0  0  0  0
   71.7487    3.3622    5.2798 C   0  0  0  0  0  0  0  0  0  0  0  0
   69.1764   -0.4729    2.5852 H   0  0  0  0  0  0  0  0  0  0  0  0
   71.0826   -0.3705    4.4942 H   0  0  0  0  0  0  0  0  0  0  0  0
   76.2193    0.8432    4.4079 H   0  0  0  0  0  0  0  0  0  0  0  0
   78.1141    0.7181    2.4889 H   0  0  0  0  0  0  0  0  0  0  0  0
   78.0864   -0.8224   -2.5400 H   0  0  0  0  0  0  0  0  0  0  0  0
   76.1809   -0.8982   -4.4509 H   0  0  0  0  0  0  0  0  0  0  0  0
   70.7866   -2.9086   -5.9869 H   0  0  0  0  0  0  0  0  0  0  0  0
   71.2114   -3.8401   -4.5266 H   0  0  0  0  0  0  0  0  0  0  0  0
   72.2680   -3.9116   -5.9617 H   0  0  0  0  0  0  0  0  0  0  0  0
   72.4359   -2.1248   -7.4988 H   0  0  0  0  0  0  0  0  0  0  0  0
   73.6193   -0.3968   -8.7781 H   0  0  0  0  0  0  0  0  0  0  0  0
   74.8078    1.4259   -7.6429 H   0  0  0  0  0  0  0  0  0  0  0  0
   76.0503    3.3635   -4.8181 H   0  0  0  0  0  0  0  0  0  0  0  0
   74.9919    3.3261   -6.2531 H   0  0  0  0  0  0  0  0  0  0  0  0
   76.4679    2.3162   -6.1999 H   0  0  0  0  0  0  0  0  0  0  0  0
   71.0627    0.4103   -4.5021 H   0  0  0  0  0  0  0  0  0  0  0  0
   69.1659    0.4898   -2.5835 H   0  0  0  0  0  0  0  0  0  0  0  0
   74.8841   -3.3281    6.2818 H   0  0  0  0  0  0  0  0  0  0  0  0
   75.9429   -3.4301    4.8502 H   0  0  0  0  0  0  0  0  0  0  0  0
   76.3990   -2.3784    6.2165 H   0  0  0  0  0  0  0  0  0  0  0  0
   74.7762   -1.3985    7.6417 H   0  0  0  0  0  0  0  0  0  0  0  0
   73.6533    0.4842    8.7452 H   0  0  0  0  0  0  0  0  0  0  0  0
   72.5290    2.2296    7.4367 H   0  0  0  0  0  0  0  0  0  0  0  0
   72.4291    3.9930    5.8645 H   0  0  0  0  0  0  0  0  0  0  0  0
   70.9092    3.0502    5.9130 H   0  0  0  0  0  0  0  0  0  0  0  0
   71.3658    3.9358    4.4338 H   0  0  0  0  0  0  0  0  0  0  0  0
  2  3  4  0  0  0  0
  3  4  4  0  0  0  0
  4  5  2  0  0  0  0
  5  6  4  0  0  0  0
  1  7  1  0  0  0  0
  3  7  4  0  0  0  0
  6  7  4  0  0  0  0
  6  8  4  0  0  0  0
  8  9  4  0  0  0  0
  9 10  4  0  0  0  0
 10 11  2  0  0  0  0
  1 12  1  0  0  0  0
  9 12  4  0  0  0  0
 11 13  4  0  0  0  0
 12 13  4  0  0  0  0
 13 14  4  0  0  0  0
 14 15  4  0  0  0  0
 15 16  4  0  0  0  0
 16 17  2  0  0  0  0
 17 18  4  0  0  0  0
 18 19  4  0  0  0  0
 19 20  1  0  0  0  0
 20 21  4  0  0  0  0
 21 22  1  0  0  0  0
 22 23  1  0  0  0  0
 21 24  4  0  0  0  0
 24 25  4  0  0  0  0
 25 26  4  0  0  0  0
 20 27  4  0  0  0  0
 26 27  4  0  0  0  0
 27 28  1  0  0  0  0
 28 29  1  0  0  0  0
 19 30  4  0  0  0  0
 30 31  4  0  0  0  0
 31 32  2  0  0  0  0
  2 33  4  0  0  0  0
 32 33  4  0  0  0  0
  1 34  1  0  0  0  0
 30 34  4  0  0  0  0
 33 34  4  0  0  0  0
  1 35  1  0  0  0  0
 15 35  4  0  0  0  0
 18 35  4  0  0  0  0
  8 36  1  0  0  0  0
 36 37  4  0  0  0  0
 37 38  1  0  0  0  0
 38 39  1  0  0  0  0
 37 40  4  0  0  0  0
 40 41  4  0  0  0  0
 41 42  4  0  0  0  0
 36 43  4  0  0  0  0
 42 43  4  0  0  0  0
 43 44  1  0  0  0  0
 44 45  1  0  0  0  0
  2 46  1  0  0  0  0
  4 47  1  0  0  0  0
  5 48  1  0  0  0  0
 10 49  1  0  0  0  0
 11 50  1  0  0  0  0
 16 51  1  0  0  0  0
 17 52  1  0  0  0  0
 23 53  1  0  0  0  0
 23 54  1  0  0  0  0
 23 55  1  0  0  0  0
 24 56  1  0  0  0  0
 25 57  1  0  0  0  0
 26 58  1  0  0  0  0
 29 59  1  0  0  0  0
 29 60  1  0  0  0  0
 29 61  1  0  0  0  0
 31 62  1  0  0  0  0
 32 63  1  0  0  0  0
 39 64  1  0  0  0  0
 39 65  1  0  0  0  0
 39 66  1  0  0  0  0
 40 67  1  0  0  0  0
 41 68  1  0  0  0  0
 42 69  1  0  0  0  0
 45 70  1  0  0  0  0
 45 71  1  0  0  0  0
 45 72  1  0  0  0  0
 74 75  4  0  0  0  0
 75 76  4  0  0  0  0
 76 77  2  0  0  0  0
 77 78  4  0  0  0  0
 73 79  1  0  0  0  0
 75 79  4  0  0  0  0
 78 79  4  0  0  0  0
 78 80  4  0  0  0  0
 80 81  4  0  0  0  0
 81 82  4  0  0  0  0
 82 83  2  0  0  0  0
 73 84  1  0  0  0  0
 81 84  4  0  0  0  0
 83 85  4  0  0  0  0
 84 85  4  0  0  0  0
 85 86  4  0  0  0  0
 86 87  4  0  0  0  0
 87 88  4  0  0  0  0
 88 89  2  0  0  0  0
 89 90  4  0  0  0  0
 90 91  4  0  0  0  0
 91 92  1  0  0  0  0
 92 93  4  0  0  0  0
 93 94  1  0  0  0  0
 94 95  1  0  0  0  0
 93 96  4  0  0  0  0
 96 97  4  0  0  0  0
 97 98  4  0  0  0  0
 92 99  4  0  0  0  0
 98 99  4  0  0  0  0
 99100  1  0  0  0  0
100101  1  0  0  0  0
 91102  4  0  0  0  0
102103  4  0  0  0  0
103104  2  0  0  0  0
 74105  4  0  0  0  0
104105  4  0  0  0  0
 73106  1  0  0  0  0
102106  4  0  0  0  0
105106  4  0  0  0  0
 73107  1  0  0  0  0
 87107  4  0  0  0  0
 90107  4  0  0  0  0
 80108  1  0  0  0  0
108109  4  0  0  0  0
109110  1  0  0  0  0
110111  1  0  0  0  0
109112  4  0  0  0  0
112113  4  0  0  0  0
113114  4  0  0  0  0
108115  4  0  0  0  0
114115  4  0  0  0  0
115116  1  0  0  0  0
116117  1  0  0  0  0
 74118  1  0  0  0  0
 76119  1  0  0  0  0
 77120  1  0  0  0  0
 82121  1  0  0  0  0
 83122  1  0  0  0  0
 88123  1  0  0  0  0
 89124  1  0  0  0  0
 95125  1  0  0  0  0
 95126  1  0  0  0  0
 95127  1  0  0  0  0
 96128  1  0  0  0  0
 97129  1  0  0  0  0
 98130  1  0  0  0  0
101131  1  0  0  0  0
101132  1  0  0  0  0
101133  1  0  0  0  0
103134  1  0  0  0  0
104135  1  0  0  0  0
111136  1  0  0  0  0
111137  1  0  0  0  0
111138  1  0  0  0  0
112139  1  0  0  0  0
113140  1  0  0  0  0
114141  1  0  0  0  0
117142  1  0  0  0  0
117143  1  0  0  0  0
117144  1  0  0  0  0
 14146  4  0  0  0  0
145146  3  0  0  0  0
145147  4  0  0  0  0
147148  3  0  0  0  0
149150  3  0  0  0  0
149151  4  0  0  0  0
151152  3  0  0  0  0
153154  3  0  0  0  0
153155  4  0  0  0  0
 86156  4  0  0  0  0
155156  3  0  0  0  0
148158  4  0  0  0  0
158159  4  0  0  0  0
159160  4  0  0  0  0
160161  2  0  0  0  0
161162  4  0  0  0  0
157163  1  0  0  0  0
159163  4  0  0  0  0
162163  4  0  0  0  0
162164  4  0  0  0  0
164165  4  0  0  0  0
165166  4  0  0  0  0
166167  2  0  0  0  0
157168  1  0  0  0  0
165168  4  0  0  0  0
167169  4  0  0  0  0
168169  4  0  0  0  0
150170  4  0  0  0  0
169170  4  0  0  0  0
170171  4  0  0  0  0
171172  4  0  0  0  0
172173  2  0  0  0  0
173174  4  0  0  0  0
174175  4  0  0  0  0
175176  1  0  0  0  0
176177  4  0  0  0  0
177178  1  0  0  0  0
178179  1  0  0  0  0
177180  4  0  0  0  0
180181  4  0  0  0  0
181182  4  0  0  0  0
176183  4  0  0  0  0
182183  4  0  0  0  0
183184  1  0  0  0  0
184185  1  0  0  0  0
175186  4  0  0  0  0
186187  4  0  0  0  0
187188  2  0  0  0  0
158189  4  0  0  0  0
188189  4  0  0  0  0
157190  1  0  0  0  0
186190  4  0  0  0  0
189190  4  0  0  0  0
157191  1  0  0  0  0
171191  4  0  0  0  0
174191  4  0  0  0  0
164192  1  0  0  0  0
192193  4  0  0  0  0
193194  1  0  0  0  0
194195  1  0  0  0  0
193196  4  0  0  0  0
196197  4  0  0  0  0
197198  4  0  0  0  0
192199  4  0  0  0  0
198199  4  0  0  0  0
199200  1  0  0  0  0
200201  1  0  0  0  0
160202  1  0  0  0  0
161203  1  0  0  0  0
166204  1  0  0  0  0
167205  1  0  0  0  0
172206  1  0  0  0  0
173207  1  0  0  0  0
179208  1  0  0  0  0
179209  1  0  0  0  0
179210  1  0  0  0  0
180211  1  0  0  0  0
181212  1  0  0  0  0
182213  1  0  0  0  0
185214  1  0  0  0  0
185215  1  0  0  0  0
185216  1  0  0  0  0
187217  1  0  0  0  0
188218  1  0  0  0  0
195219  1  0  0  0  0
195220  1  0  0  0  0
195221  1  0  0  0  0
196222  1  0  0  0  0
197223  1  0  0  0  0
198224  1  0  0  0  0
201225  1  0  0  0  0
201226  1  0  0  0  0
201227  1  0  0  0  0
152229  4  0  0  0  0
229230  4  0  0  0  0
230231  4  0  0  0  0
231232  2  0  0  0  0
232233  4  0  0  0  0
228234  1  0  0  0  0
230234  4  0  0  0  0
233234  4  0  0  0  0
233235  4  0  0  0  0
235236  4  0  0  0  0
236237  4  0  0  0  0
237238  2  0  0  0  0
228239  1  0  0  0  0
236239  4  0  0  0  0
238240  4  0  0  0  0
239240  4  0  0  0  0
154241  4  0  0  0  0
240241  4  0  0  0  0
241242  4  0  0  0  0
242243  4  0  0  0  0
243244  2  0  0  0  0
244245  4  0  0  0  0
245246  4  0  0  0  0
246247  1  0  0  0  0
247248  4  0  0  0  0
248249  1  0  0  0  0
249250  1  0  0  0  0
248251  4  0  0  0  0
251252  4  0  0  0  0
252253  4  0  0  0  0
247254  4  0  0  0  0
253254  4  0  0  0  0
254255  1  0  0  0  0
255256  1  0  0  0  0
246257  4  0  0  0  0
257258  4  0  0  0  0
258259  2  0  0  0  0
229260  4  0  0  0  0
259260  4  0  0  0  0
228261  1  0  0  0  0
257261  4  0  0  0  0
260261  4  0  0  0  0
228262  1  0  0  0  0
242262  4  0  0  0  0
245262  4  0  0  0  0
235263  1  0  0  0  0
263264  4  0  0  0  0
264265  1  0  0  0  0
265266  1  0  0  0  0
264267  4  0  0  0  0
267268  4  0  0  0  0
268269  4  0  0  0  0
263270  4  0  0  0  0
269270  4  0  0  0  0
270271  1  0  0  0  0
271272  1  0  0  0  0
231273  1  0  0  0  0
232274  1  0  0  0  0
237275  1  0  0  0  0
238276  1  0  0  0  0
243277  1  0  0  0  0
244278  1  0  0  0  0
250279  1  0  0  0  0
250280  1  0  0  0  0
250281  1  0  0  0  0
251282  1  0  0  0  0
252283  1  0  0  0  0
253284  1  0  0  0  0
256285  1  0  0  0  0
256286  1  0  0  0  0
256287  1  0  0  0  0
258288  1  0  0  0  0
259289  1  0  0  0  0
266290  1  0  0  0  0
266291  1  0  0  0  0
266292  1  0  0  0  0
267293  1  0  0  0  0
268294  1  0  0  0  0
269295  1  0  0  0  0
272296  1  0  0  0  0
272297  1  0  0  0  0
272298  1  0  0  0  0
M  END
