252

C 38.381112 0.013707 0.061456
C 39.105979 1.207035 -0.632922
C 38.491174 2.232389 -1.314647
C 39.512189 3.124339 -1.733030
C 40.716589 2.615744 -1.286925
N 40.460386 1.422981 -0.657915
C 42.143198 3.290156 -1.441285
C 42.188969 4.687960 -1.931784
C 42.454632 4.947415 -3.283067
C 42.490414 6.259970 -3.756548
C 42.256613 7.311249 -2.872519
O 42.284265 8.608581 -3.299996
C 41.989030 7.071086 -1.528936
C 41.955105 5.756989 -1.057701
C 43.273005 2.609330 -1.107932
C 44.582017 3.226544 -1.172122
C 45.484172 2.339790 -0.768851
N 43.466307 1.328519 -0.660902
C 44.800654 1.104285 -0.439823
C 45.468637 0.003243 -0.003128
C 44.688548 -1.342638 0.312999
C 45.225586 -2.615294 0.308185
C 44.200795 -3.513857 0.695315
C 43.063133 -2.766868 0.914520
N 43.356541 -1.453346 0.631571
C 41.654352 -3.323196 1.386720
C 41.620663 -4.636614 2.068774
C 41.999374 -4.747740 3.412208
C 41.979676 -5.990787 4.048571
C 41.582790 -7.118882 3.338526
O 41.573559 -8.318819 3.991665
C 41.205615 -7.027967 2.000452
C 41.227388 -5.784362 1.366953
C 40.530686 -2.594090 1.159632
C 39.210461 -3.035017 1.574700
C 38.325645 -2.116769 1.198055
C 39.046084 -1.053958 0.540885
N 40.366002 -1.381026 0.550882
H 37.304470 0.068421 0.169522
H 37.429478 2.335595 -1.477614
H 39.380101 4.047023 -2.277756
H 41.164410 0.801191 -0.267451
H 42.637187 4.110300 -3.953894
H 42.701318 6.431480 -4.805539
H 42.501742 8.594589 -4.245420
H 41.809109 7.895077 -0.847236
H 41.749669 5.550103 -0.009844
H 44.796936 4.235408 -1.476245
H 46.540330 2.528433 -0.708268
H 46.245444 -2.872130 0.065562
H 44.284506 -4.584436 0.806172
H 42.675911 -0.698197 0.609425
H 42.306677 -3.855296 3.952673
H 42.272299 -6.069979 5.089810
H 41.264302 -8.987054 3.360003
H 40.893634 -7.897596 1.434195
H 40.935221 -5.688436 0.323056
H 38.982393 -3.944110 2.101283
H 37.263714 -2.149149 1.360957
C 93.953844 0.051896 0.040616
C 93.228976 -1.177724 0.668491
C 93.843781 -2.305820 1.161949
C 92.822767 -3.140269 1.685699
C 91.618367 -2.489922 1.499344
N 91.874569 -1.315582 0.836576
C 90.191758 -2.984632 1.982999
C 90.145987 -4.153425 2.893146
C 89.880324 -5.430216 2.380224
C 89.844542 -6.538572 3.227886
C 90.078343 -6.363917 4.590307
O 90.050691 -7.425348 5.450057
C 90.345926 -5.104039 5.115286
C 90.379850 -3.996737 4.265113
C 89.061950 -2.335921 1.590796
C 87.752939 -2.723852 2.075134
C 86.850784 -1.904923 1.547578
N 88.868649 -1.266984 0.755519
C 87.534302 -0.959737 0.686557
C 86.866319 0.003243 -0.003128
C 87.646408 0.997298 -0.963953
C 87.109369 1.681828 -2.036845
C 88.134161 2.493572 -2.583065
C 89.271823 2.273758 -1.836255
N 88.978415 1.325112 -0.884692
C 90.680603 2.971876 -2.048633
C 90.714293 4.256107 -2.784171
C 90.335582 5.446042 -2.150754
C 90.355280 6.653773 -2.851831
C 90.752166 6.666997 -4.184718
O 90.761397 7.865511 -4.840465
C 91.129341 5.492505 -4.832233
C 91.107568 4.286880 -4.129136
C 91.804270 2.386411 -1.558332
C 93.124495 2.974043 -1.704571
C 94.009311 2.160466 -1.136123
C 93.288871 1.032755 -0.597878
N 91.968954 1.218125 -0.867529
H 95.030486 0.113174 0.145099
H 94.905478 -2.498713 1.160570
H 92.954855 -4.097599 2.166936
H 91.170546 -0.650784 0.524922
H 89.697768 -5.541446 1.313267
H 89.633638 -7.513556 2.804561
H 89.833213 -8.212866 4.926762
H 90.525847 -4.976564 6.177089
H 90.585287 -3.003566 4.658074
H 87.538019 -3.525467 2.759028
H 85.794626 -1.956039 1.739003
H 86.089511 1.616747 -2.384113
H 88.050450 3.166044 -3.423428
H 89.659045 0.897910 -0.261604
H 90.028279 5.417704 -1.107799
H 90.062657 7.572288 -2.355062
H 91.070654 7.695844 -5.744206
H 91.441322 5.486808 -5.869956
H 91.399734 3.357075 -4.613270
H 93.352562 3.908763 -2.184195
H 95.071242 2.314984 -1.075214
C 51.388689 0.004345 0.005362
C 50.179749 -0.009110 -0.003086
C 48.758220 -0.000291 -0.015069
C 47.546551 0.007148 -0.004206
C 52.805293 -0.002330 0.005895
C 54.025989 0.007148 -0.004206
C 66.771322 0.004345 0.005362
C 65.562382 -0.009110 -0.003086
C 64.140854 -0.000291 -0.015069
C 62.929184 0.007148 -0.004206
C 68.187926 -0.002330 0.005895
C 69.408622 0.007148 -0.004206
C 82.153955 0.004345 0.005362
C 80.945016 -0.009110 -0.003086
C 79.523487 -0.000291 -0.015069
C 78.311817 0.007148 -0.004206
C 83.570559 -0.002330 0.005895
C 84.791255 0.007148 -0.004206
C 54.907868 -0.004408 0.003835
C 55.712010 -1.035980 -0.901482
C 55.201239 -1.767186 -1.958761
C 56.237079 -2.584480 -2.455554
C 57.357022 -2.330541 -1.683777
N 57.045991 -1.333618 -0.792554
C 58.760339 -3.064929 -1.818318
C 58.762877 -4.409011 -2.436487
C 59.235494 -4.581828 -3.745619
C 59.240425 -5.845851 -4.335566
C 58.760805 -6.934252 -3.610669
O 58.744389 -8.187074 -4.156625
C 58.269762 -6.781231 -2.319861
C 58.270732 -5.515829 -1.732950
C 59.890133 -2.464405 -1.367735
C 61.183705 -3.112168 -1.435064
C 62.096141 -2.275281 -0.943672
N 60.092116 -1.244506 -0.795247
C 61.422696 -1.060615 -0.534987
C 62.078615 -0.004408 0.003835
C 61.278604 1.300890 0.434630
C 61.823575 2.552669 0.637324
C 60.802359 3.385046 1.136306
C 59.641005 2.636659 1.172886
N 59.938486 1.374499 0.719923
C 58.225209 3.135266 1.708302
C 58.195484 4.352341 2.553155
C 58.343812 5.612557 1.961896
C 58.304039 6.771163 2.742891
C 58.078452 6.665691 4.113876
O 57.983956 7.813354 4.846294
C 57.935564 5.418707 4.722836
C 58.006779 4.262248 3.939915
C 57.087966 2.446902 1.396123
C 55.788495 2.864454 1.880215
C 54.882292 1.993162 1.434311
C 55.560144 1.011646 0.619575
N 56.889381 1.343009 0.631747
H 54.186936 -1.724885 -2.321228
H 56.178393 -3.297436 -3.270673
H 57.710432 -0.872191 -0.175169
H 59.605086 -3.715520 -4.294866
H 59.633336 -5.950076 -5.334287
H 59.045563 -8.102302 -5.075222
H 57.882563 -7.634231 -1.780409
H 57.887223 -5.372396 -0.724840
H 61.392166 -4.101849 -1.808991
H 63.145379 -2.490641 -0.864245
H 62.857321 2.826730 0.493242
H 60.908277 4.413666 1.458224
H 59.265909 0.624789 0.607843
H 58.491960 5.676982 0.885911
H 58.429395 7.745775 2.288682
H 57.371702 7.616689 5.582906
H 57.769900 5.326074 5.788070
H 57.891767 3.280138 4.388406
H 55.572363 3.722974 2.491294
H 53.826304 2.050664 1.632757
C 70.290501 -0.004408 0.003835
C 71.094643 -1.035980 -0.901482
C 70.583872 -1.767186 -1.958761
C 71.619712 -2.584480 -2.455554
C 72.739655 -2.330541 -1.683777
N 72.428625 -1.333618 -0.792554
C 74.142973 -3.064929 -1.818318
C 74.145510 -4.409011 -2.436487
C 74.618127 -4.581828 -3.745619
C 74.623059 -5.845851 -4.335566
C 74.143439 -6.934252 -3.610669
O 74.127022 -8.187074 -4.156625
C 73.652396 -6.781231 -2.319861
C 73.653366 -5.515829 -1.732950
C 75.272766 -2.464405 -1.367735
C 76.566338 -3.112168 -1.435064
C 77.478774 -2.275281 -0.943672
N 75.474749 -1.244506 -0.795247
C 76.805329 -1.060615 -0.534987
C 77.461248 -0.004408 0.003835
C 76.661238 1.300890 0.434630
C 77.206208 2.552669 0.637324
C 76.184992 3.385046 1.136306
C 75.023638 2.636659 1.172886
N 75.321119 1.374499 0.719923
C 73.607842 3.135266 1.708302
C 73.578118 4.352341 2.553155
C 73.726445 5.612557 1.961896
C 73.686673 6.771163 2.742891
C 73.461085 6.665691 4.113876
O 73.366590 7.813354 4.846294
C 73.318197 5.418707 4.722836
C 73.389412 4.262248 3.939915
C 72.470599 2.446902 1.396123
C 71.171129 2.864454 1.880215
C 70.264925 1.993162 1.434311
C 70.942778 1.011646 0.619575
N 72.272015 1.343009 0.631747
H 69.569569 -1.724885 -2.321228
H 71.561027 -3.297436 -3.270673
H 73.093065 -0.872191 -0.175169
H 74.987719 -3.715520 -4.294866
H 75.015969 -5.950076 -5.334287
H 74.428197 -8.102302 -5.075222
H 73.265197 -7.634231 -1.780409
H 73.269856 -5.372396 -0.724840
H 76.774799 -4.101849 -1.808991
H 78.528012 -2.490641 -0.864245
H 78.239955 2.826730 0.493242
H 76.290911 4.413666 1.458224
H 74.648542 0.624789 0.607843
H 73.874593 5.676982 0.885911
H 73.812029 7.745775 2.288682
H 72.754335 7.616689 5.582906
H 73.152533 5.326074 5.788070
H 73.274401 3.280138 4.388406
H 70.954996 3.722974 2.491294
H 69.208937 2.050664 1.632757
