 xtb: 6.5.1 (b24c23e)
          07272216233D

184204  0     0  0            999 V2000
   29.0010    0.1030    0.0276 C   0  0  0  0  0  0  0  0  0  0  0  0
   29.6116    1.3497   -0.0122 C   0  0  0  0  0  0  0  0  0  0  0  0
   28.9621    2.6161   -0.0014 C   0  0  0  0  0  0  0  0  0  0  0  0
   29.9237    3.5836   -0.0796 C   0  0  0  0  0  0  0  0  0  0  0  0
   31.1918    2.9388   -0.1523 C   0  0  0  0  0  0  0  0  0  0  0  0
   30.9534    1.5953   -0.0928 N   0  0  0  0  0  0  0  0  0  0  0  0
   32.4541    3.5349   -0.2544 C   0  0  0  0  0  0  0  0  0  0  0  0
   32.4885    5.0135   -0.3465 C   0  0  0  0  0  0  0  0  0  0  0  0
   33.1689    5.7659    0.6143 C   0  0  0  0  0  0  0  0  0  0  0  0
   33.1999    7.1465    0.5370 C   0  0  0  0  0  0  0  0  0  0  0  0
   32.5509    7.8046   -0.5121 C   0  0  0  0  0  0  0  0  0  0  0  0
   32.5825    9.2252   -0.5964 C   0  0  0  0  0  0  0  0  0  0  0  0
   32.6106   10.3735   -0.6658 N   0  0  0  0  0  0  0  0  0  0  0  0
   31.8710    7.0567   -1.4779 C   0  0  0  0  0  0  0  0  0  0  0  0
   31.8401    5.6764   -1.3914 C   0  0  0  0  0  0  0  0  0  0  0  0
   33.6675    2.8416   -0.2739 C   0  0  0  0  0  0  0  0  0  0  0  0
   34.9618    3.4740   -0.4571 C   0  0  0  0  0  0  0  0  0  0  0  0
   35.8807    2.4881   -0.3967 C   0  0  0  0  0  0  0  0  0  0  0  0
   33.8203    1.4966   -0.1349 N   0  0  0  0  0  0  0  0  0  0  0  0
   35.1461    1.2554   -0.1874 C   0  0  0  0  0  0  0  0  0  0  0  0
   35.7818    0.0074   -0.0336 C   0  0  0  0  0  0  0  0  0  0  0  0
   35.1464   -1.2390    0.1182 C   0  0  0  0  0  0  0  0  0  0  0  0
   35.7904   -2.4927    0.2925 C   0  0  0  0  0  0  0  0  0  0  0  0
   34.8243   -3.4585    0.3518 C   0  0  0  0  0  0  0  0  0  0  0  0
   33.5596   -2.8232    0.2075 C   0  0  0  0  0  0  0  0  0  0  0  0
   33.8056   -1.4817    0.0846 N   0  0  0  0  0  0  0  0  0  0  0  0
   32.2977   -3.4284    0.2063 C   0  0  0  0  0  0  0  0  0  0  0  0
   32.2677   -4.9068    0.2911 C   0  0  0  0  0  0  0  0  0  0  0  0
   31.6084   -5.5454    1.3445 C   0  0  0  0  0  0  0  0  0  0  0  0
   31.5825   -6.9259    1.4266 C   0  0  0  0  0  0  0  0  0  0  0  0
   32.2152   -7.6988    0.4482 C   0  0  0  0  0  0  0  0  0  0  0  0
   32.1893   -9.1197    0.5287 C   0  0  0  0  0  0  0  0  0  0  0  0
   32.1700  -10.2686    0.5928 N   0  0  0  0  0  0  0  0  0  0  0  0
   32.8741   -7.0653   -0.6097 C   0  0  0  0  0  0  0  0  0  0  0  0
   32.9003   -5.6843   -0.6825 C   0  0  0  0  0  0  0  0  0  0  0  0
   31.0818   -2.7401    0.1307 C   0  0  0  0  0  0  0  0  0  0  0  0
   29.7771   -3.3817    0.0758 C   0  0  0  0  0  0  0  0  0  0  0  0
   28.8653   -2.3898    0.0327 C   0  0  0  0  0  0  0  0  0  0  0  0
   29.6118   -1.1439    0.0456 C   0  0  0  0  0  0  0  0  0  0  0  0
   30.9435   -1.3939    0.0910 N   0  0  0  0  0  0  0  0  0  0  0  0
   27.9158    0.1141    0.0433 H   0  0  0  0  0  0  0  0  0  0  0  0
   27.8948    2.7552    0.0645 H   0  0  0  0  0  0  0  0  0  0  0  0
   29.7738    4.6510   -0.0779 H   0  0  0  0  0  0  0  0  0  0  0  0
   31.6776    0.8850   -0.1074 H   0  0  0  0  0  0  0  0  0  0  0  0
   33.6621    5.2602    1.4367 H   0  0  0  0  0  0  0  0  0  0  0  0
   33.7251    7.7230    1.2894 H   0  0  0  0  0  0  0  0  0  0  0  0
   31.3706    7.5629   -2.2952 H   0  0  0  0  0  0  0  0  0  0  0  0
   31.3246    5.1003   -2.1516 H   0  0  0  0  0  0  0  0  0  0  0  0
   35.1231    4.5265   -0.6250 H   0  0  0  0  0  0  0  0  0  0  0  0
   36.9524    2.5604   -0.4905 H   0  0  0  0  0  0  0  0  0  0  0  0
   36.8574   -2.6279    0.3658 H   0  0  0  0  0  0  0  0  0  0  0  0
   34.9716   -4.5166    0.4945 H   0  0  0  0  0  0  0  0  0  0  0  0
   33.0835   -0.7759   -0.0155 H   0  0  0  0  0  0  0  0  0  0  0  0
   31.1294   -4.9502    2.1136 H   0  0  0  0  0  0  0  0  0  0  0  0
   31.0741   -7.4135    2.2501 H   0  0  0  0  0  0  0  0  0  0  0  0
   33.3621   -7.6606   -1.3725 H   0  0  0  0  0  0  0  0  0  0  0  0
   33.3998   -5.1978   -1.5128 H   0  0  0  0  0  0  0  0  0  0  0  0
   29.6071   -4.4462    0.0588 H   0  0  0  0  0  0  0  0  0  0  0  0
   27.7901   -2.4623   -0.0148 H   0  0  0  0  0  0  0  0  0  0  0  0
   62.6284   -0.0847    0.0576 C   0  0  0  0  0  0  0  0  0  0  0  0
   62.0184   -1.2887    0.3848 C   0  0  0  0  0  0  0  0  0  0  0  0
   62.6694   -2.5024    0.7440 C   0  0  0  0  0  0  0  0  0  0  0  0
   61.7072   -3.4455    0.9704 C   0  0  0  0  0  0  0  0  0  0  0  0
   60.4371   -2.8405    0.7476 C   0  0  0  0  0  0  0  0  0  0  0  0
   60.6754   -1.5392    0.4087 N   0  0  0  0  0  0  0  0  0  0  0  0
   59.1734   -3.4302    0.8673 C   0  0  0  0  0  0  0  0  0  0  0  0
   59.1409   -4.8713    1.2125 C   0  0  0  0  0  0  0  0  0  0  0  0
   58.5115   -5.3075    2.3809 C   0  0  0  0  0  0  0  0  0  0  0  0
   58.4797   -6.6519    2.7047 C   0  0  0  0  0  0  0  0  0  0  0  0
   59.0763   -7.5913    1.8582 C   0  0  0  0  0  0  0  0  0  0  0  0
   59.0411   -8.9760    2.1866 C   0  0  0  0  0  0  0  0  0  0  0  0
   59.0104  -10.0946    2.4547 N   0  0  0  0  0  0  0  0  0  0  0  0
   59.7064   -7.1604    0.6871 C   0  0  0  0  0  0  0  0  0  0  0  0
   59.7390   -5.8137    0.3724 C   0  0  0  0  0  0  0  0  0  0  0  0
   57.9580   -2.7665    0.6810 C   0  0  0  0  0  0  0  0  0  0  0  0
   56.6602   -3.4139    0.7523 C   0  0  0  0  0  0  0  0  0  0  0  0
   55.7413   -2.4542    0.5195 C   0  0  0  0  0  0  0  0  0  0  0  0
   57.8061   -1.4460    0.3882 N   0  0  0  0  0  0  0  0  0  0  0  0
   56.4790   -1.2260    0.2941 C   0  0  0  0  0  0  0  0  0  0  0  0
   55.8443    0.0005    0.0137 C   0  0  0  0  0  0  0  0  0  0  0  0
   56.4795    1.2238   -0.2692 C   0  0  0  0  0  0  0  0  0  0  0  0
   55.8347    2.4644   -0.5184 C   0  0  0  0  0  0  0  0  0  0  0  0
   56.8012    3.4030   -0.7515 C   0  0  0  0  0  0  0  0  0  0  0  0
   58.0674    2.7605   -0.6617 C   0  0  0  0  0  0  0  0  0  0  0  0
   57.8210    1.4476   -0.3592 N   0  0  0  0  0  0  0  0  0  0  0  0
   59.3306    3.3412   -0.8199 C   0  0  0  0  0  0  0  0  0  0  0  0
   59.3662    4.7794   -1.1734 C   0  0  0  0  0  0  0  0  0  0  0  0
   60.0035    5.6981   -0.3354 C   0  0  0  0  0  0  0  0  0  0  0  0
   60.0388    7.0422   -0.6596 C   0  0  0  0  0  0  0  0  0  0  0  0
   59.4377    7.4953   -1.8378 C   0  0  0  0  0  0  0  0  0  0  0  0
   59.4749    8.8776   -2.1757 C   0  0  0  0  0  0  0  0  0  0  0  0
   59.5031    9.9955   -2.4471 N   0  0  0  0  0  0  0  0  0  0  0  0
   58.8006    6.5803   -2.6813 C   0  0  0  0  0  0  0  0  0  0  0  0
   58.7648    5.2382   -2.3481 C   0  0  0  0  0  0  0  0  0  0  0  0
   60.5467    2.6655   -0.6682 C   0  0  0  0  0  0  0  0  0  0  0  0
   61.8520    3.2665   -0.8967 C   0  0  0  0  0  0  0  0  0  0  0  0
   62.7638    2.3056   -0.6472 C   0  0  0  0  0  0  0  0  0  0  0  0
   62.0170    1.1157   -0.2787 C   0  0  0  0  0  0  0  0  0  0  0  0
   60.6850    1.3667   -0.3124 N   0  0  0  0  0  0  0  0  0  0  0  0
   63.7137   -0.0933    0.0645 H   0  0  0  0  0  0  0  0  0  0  0  0
   63.7381   -2.6231    0.8213 H   0  0  0  0  0  0  0  0  0  0  0  0
   61.8576   -4.4686    1.2746 H   0  0  0  0  0  0  0  0  0  0  0  0
   59.9506   -0.8590    0.2053 H   0  0  0  0  0  0  0  0  0  0  0  0
   58.0585   -4.5811    3.0461 H   0  0  0  0  0  0  0  0  0  0  0  0
   57.9937   -6.9820    3.6153 H   0  0  0  0  0  0  0  0  0  0  0  0
   60.1664   -7.8858    0.0262 H   0  0  0  0  0  0  0  0  0  0  0  0
   60.2156   -5.4857   -0.5445 H   0  0  0  0  0  0  0  0  0  0  0  0
   56.4960   -4.4626    0.9396 H   0  0  0  0  0  0  0  0  0  0  0  0
   54.6674   -2.5452    0.4870 H   0  0  0  0  0  0  0  0  0  0  0  0
   54.7667    2.6115   -0.5105 H   0  0  0  0  0  0  0  0  0  0  0  0
   56.6531    4.4507   -0.9560 H   0  0  0  0  0  0  0  0  0  0  0  0
   58.5433    0.7497   -0.2152 H   0  0  0  0  0  0  0  0  0  0  0  0
   60.4587    5.3532    0.5861 H   0  0  0  0  0  0  0  0  0  0  0  0
   60.5307    7.7489   -0.0015 H   0  0  0  0  0  0  0  0  0  0  0  0
   58.3373    6.9268   -3.5977 H   0  0  0  0  0  0  0  0  0  0  0  0
   58.2831    4.5304   -3.0134 H   0  0  0  0  0  0  0  0  0  0  0  0
   62.0223    4.2811   -1.2191 H   0  0  0  0  0  0  0  0  0  0  0  0
   63.8393    2.3629   -0.7077 H   0  0  0  0  0  0  0  0  0  0  0  0
   38.4104   -0.0288   -0.0247 C   0  0  0  0  0  0  0  0  0  0  0  0
   37.1888   -0.0094   -0.0315 C   0  0  0  0  0  0  0  0  0  0  0  0
   39.7603   -0.0410   -0.0232 C   0  0  0  0  0  0  0  0  0  0  0  0
   40.9822   -0.0537   -0.0202 C   0  0  0  0  0  0  0  0  0  0  0  0
   51.8654    0.0121    0.0011 C   0  0  0  0  0  0  0  0  0  0  0  0
   50.6435    0.0012   -0.0073 C   0  0  0  0  0  0  0  0  0  0  0  0
   53.2154    0.0167    0.0049 C   0  0  0  0  0  0  0  0  0  0  0  0
   54.4372    0.0145    0.0095 C   0  0  0  0  0  0  0  0  0  0  0  0
   42.3884   -0.0544   -0.0247 C   0  0  0  0  0  0  0  0  0  0  0  0
   43.0083    0.8790   -0.8769 C   0  0  0  0  0  0  0  0  0  0  0  0
   42.3519    1.8228   -1.7090 C   0  0  0  0  0  0  0  0  0  0  0  0
   43.3097    2.5074   -2.4057 C   0  0  0  0  0  0  0  0  0  0  0  0
   44.5795    1.9953   -2.0232 C   0  0  0  0  0  0  0  0  0  0  0  0
   44.3471    1.0234   -1.0876 N   0  0  0  0  0  0  0  0  0  0  0  0
   45.8350    2.4047   -2.4889 C   0  0  0  0  0  0  0  0  0  0  0  0
   45.8380    3.4368   -3.5535 C   0  0  0  0  0  0  0  0  0  0  0  0
   45.2262    3.1832   -4.7836 C   0  0  0  0  0  0  0  0  0  0  0  0
   45.2288    4.1396   -5.7829 C   0  0  0  0  0  0  0  0  0  0  0  0
   45.8411    5.3775   -5.5662 C   0  0  0  0  0  0  0  0  0  0  0  0
   45.8417    6.3653   -6.5913 C   0  0  0  0  0  0  0  0  0  0  0  0
   45.8402    7.1617   -7.4219 N   0  0  0  0  0  0  0  0  0  0  0  0
   46.4516    5.6378   -4.3356 C   0  0  0  0  0  0  0  0  0  0  0  0
   46.4505    4.6744   -3.3430 C   0  0  0  0  0  0  0  0  0  0  0  0
   47.0638    1.9195   -2.0375 C   0  0  0  0  0  0  0  0  0  0  0  0
   48.3470    2.3301   -2.5795 C   0  0  0  0  0  0  0  0  0  0  0  0
   49.2879    1.6608   -1.8822 C   0  0  0  0  0  0  0  0  0  0  0  0
   47.2455    1.0005   -1.0501 N   0  0  0  0  0  0  0  0  0  0  0  0
   48.5779    0.8332   -0.9267 C   0  0  0  0  0  0  0  0  0  0  0  0
   49.2373   -0.0140   -0.0146 C   0  0  0  0  0  0  0  0  0  0  0  0
   48.6179   -0.8891    0.8975 C   0  0  0  0  0  0  0  0  0  0  0  0
   49.2739   -1.7209    1.8418 C   0  0  0  0  0  0  0  0  0  0  0  0
   48.3161   -2.4184    2.5255 C   0  0  0  0  0  0  0  0  0  0  0  0
   47.0465   -2.0392    2.0103 C   0  0  0  0  0  0  0  0  0  0  0  0
   47.2794   -1.1057    1.0363 N   0  0  0  0  0  0  0  0  0  0  0  0
   45.7903   -2.5042    2.4183 C   0  0  0  0  0  0  0  0  0  0  0  0
   45.7817   -3.5428    3.4767 C   0  0  0  0  0  0  0  0  0  0  0  0
   46.3981   -4.7785    3.2666 C   0  0  0  0  0  0  0  0  0  0  0  0
   46.3900   -5.7471    4.2543 C   0  0  0  0  0  0  0  0  0  0  0  0
   45.7675   -5.4932    5.4801 C   0  0  0  0  0  0  0  0  0  0  0  0
   45.7602   -6.4863    6.5000 C   0  0  0  0  0  0  0  0  0  0  0  0
   45.7548   -7.2871    7.3263 N   0  0  0  0  0  0  0  0  0  0  0  0
   45.1516   -4.2569    5.6965 C   0  0  0  0  0  0  0  0  0  0  0  0
   45.1580   -3.2955    4.7021 C   0  0  0  0  0  0  0  0  0  0  0  0
   44.5626   -2.0679    1.9162 C   0  0  0  0  0  0  0  0  0  0  0  0
   43.2810   -2.6229    2.3142 C   0  0  0  0  0  0  0  0  0  0  0  0
   42.3400   -1.9407    1.6295 C   0  0  0  0  0  0  0  0  0  0  0  0
   43.0484   -0.9772    0.8099 C   0  0  0  0  0  0  0  0  0  0  0  0
   44.3804   -1.0865    0.9912 N   0  0  0  0  0  0  0  0  0  0  0  0
   41.2834    1.9566   -1.7594 H   0  0  0  0  0  0  0  0  0  0  0  0
   43.1526    3.3040   -3.1144 H   0  0  0  0  0  0  0  0  0  0  0  0
   45.0738    0.4900   -0.6223 H   0  0  0  0  0  0  0  0  0  0  0  0
   44.7615    2.2197   -4.9603 H   0  0  0  0  0  0  0  0  0  0  0  0
   44.7583    3.9324   -6.7369 H   0  0  0  0  0  0  0  0  0  0  0  0
   46.9237    6.5979   -4.1629 H   0  0  0  0  0  0  0  0  0  0  0  0
   46.9141    4.8845   -2.3858 H   0  0  0  0  0  0  0  0  0  0  0  0
   48.4869    3.0248   -3.3917 H   0  0  0  0  0  0  0  0  0  0  0  0
   50.3600    1.6968   -1.9915 H   0  0  0  0  0  0  0  0  0  0  0  0
   50.3422   -1.7682    1.9786 H   0  0  0  0  0  0  0  0  0  0  0  0
   48.4735   -3.1256    3.3234 H   0  0  0  0  0  0  0  0  0  0  0  0
   46.5525   -0.6397    0.5035 H   0  0  0  0  0  0  0  0  0  0  0  0
   46.8705   -4.9848    2.3128 H   0  0  0  0  0  0  0  0  0  0  0  0
   46.8645   -6.7059    4.0813 H   0  0  0  0  0  0  0  0  0  0  0  0
   44.6712   -4.0551    6.6467 H   0  0  0  0  0  0  0  0  0  0  0  0
   44.6897   -2.3337    4.8777 H   0  0  0  0  0  0  0  0  0  0  0  0
   43.1428   -3.4338    3.0109 H   0  0  0  0  0  0  0  0  0  0  0  0
   41.2689   -2.0621    1.6532 H   0  0  0  0  0  0  0  0  0  0  0  0
  1  2  4  0  0  0  0
  2  3  4  0  0  0  0
  3  4  2  0  0  0  0
  4  5  4  0  0  0  0
  2  6  4  0  0  0  0
  5  6  4  0  0  0  0
  5  7  4  0  0  0  0
  7  8  1  0  0  0  0
  8  9  4  0  0  0  0
  9 10  4  0  0  0  0
 10 11  4  0  0  0  0
 11 12  1  0  0  0  0
 12 13  3  0  0  0  0
 11 14  4  0  0  0  0
  8 15  4  0  0  0  0
 14 15  4  0  0  0  0
  7 16  4  0  0  0  0
 16 17  1  0  0  0  0
 17 18  2  0  0  0  0
 16 19  4  0  0  0  0
 18 20  1  0  0  0  0
 19 20  4  0  0  0  0
 20 21  4  0  0  0  0
 21 22  4  0  0  0  0
 22 23  4  0  0  0  0
 23 24  2  0  0  0  0
 24 25  4  0  0  0  0
 22 26  4  0  0  0  0
 25 26  4  0  0  0  0
 25 27  4  0  0  0  0
 27 28  1  0  0  0  0
 28 29  4  0  0  0  0
 29 30  4  0  0  0  0
 30 31  4  0  0  0  0
 31 32  1  0  0  0  0
 32 33  3  0  0  0  0
 31 34  4  0  0  0  0
 28 35  4  0  0  0  0
 34 35  4  0  0  0  0
 27 36  4  0  0  0  0
 36 37  1  0  0  0  0
 37 38  2  0  0  0  0
  1 39  4  0  0  0  0
 38 39  1  0  0  0  0
 36 40  4  0  0  0  0
 39 40  4  0  0  0  0
  1 41  1  0  0  0  0
  3 42  1  0  0  0  0
  4 43  1  0  0  0  0
  6 44  1  0  0  0  0
  9 45  1  0  0  0  0
 10 46  1  0  0  0  0
 14 47  1  0  0  0  0
 15 48  1  0  0  0  0
 17 49  1  0  0  0  0
 18 50  1  0  0  0  0
 23 51  1  0  0  0  0
 24 52  1  0  0  0  0
 26 53  1  0  0  0  0
 29 54  1  0  0  0  0
 30 55  1  0  0  0  0
 34 56  1  0  0  0  0
 35 57  1  0  0  0  0
 37 58  1  0  0  0  0
 38 59  1  0  0  0  0
 60 61  4  0  0  0  0
 61 62  4  0  0  0  0
 62 63  2  0  0  0  0
 63 64  4  0  0  0  0
 61 65  4  0  0  0  0
 64 65  4  0  0  0  0
 64 66  4  0  0  0  0
 66 67  1  0  0  0  0
 67 68  4  0  0  0  0
 68 69  4  0  0  0  0
 69 70  4  0  0  0  0
 70 71  1  0  0  0  0
 71 72  3  0  0  0  0
 70 73  4  0  0  0  0
 67 74  4  0  0  0  0
 73 74  4  0  0  0  0
 66 75  4  0  0  0  0
 75 76  1  0  0  0  0
 76 77  2  0  0  0  0
 75 78  4  0  0  0  0
 77 79  1  0  0  0  0
 78 79  4  0  0  0  0
 79 80  4  0  0  0  0
 80 81  4  0  0  0  0
 81 82  4  0  0  0  0
 82 83  2  0  0  0  0
 83 84  4  0  0  0  0
 81 85  4  0  0  0  0
 84 85  4  0  0  0  0
 84 86  4  0  0  0  0
 86 87  1  0  0  0  0
 87 88  4  0  0  0  0
 88 89  4  0  0  0  0
 89 90  4  0  0  0  0
 90 91  1  0  0  0  0
 91 92  3  0  0  0  0
 90 93  4  0  0  0  0
 87 94  4  0  0  0  0
 93 94  4  0  0  0  0
 86 95  4  0  0  0  0
 95 96  1  0  0  0  0
 96 97  2  0  0  0  0
 60 98  4  0  0  0  0
 97 98  1  0  0  0  0
 95 99  4  0  0  0  0
 98 99  4  0  0  0  0
 60100  1  0  0  0  0
 62101  1  0  0  0  0
 63102  1  0  0  0  0
 65103  1  0  0  0  0
 68104  1  0  0  0  0
 69105  1  0  0  0  0
 73106  1  0  0  0  0
 74107  1  0  0  0  0
 76108  1  0  0  0  0
 77109  1  0  0  0  0
 82110  1  0  0  0  0
 83111  1  0  0  0  0
 85112  1  0  0  0  0
 88113  1  0  0  0  0
 89114  1  0  0  0  0
 93115  1  0  0  0  0
 94116  1  0  0  0  0
 96117  1  0  0  0  0
 97118  1  0  0  0  0
 21120  4  0  0  0  0
119120  3  0  0  0  0
119121  4  0  0  0  0
121122  3  0  0  0  0
123124  3  0  0  0  0
123125  4  0  0  0  0
 80126  4  0  0  0  0
125126  3  0  0  0  0
122127  4  0  0  0  0
127128  4  0  0  0  0
128129  4  0  0  0  0
129130  2  0  0  0  0
130131  4  0  0  0  0
128132  4  0  0  0  0
131132  4  0  0  0  0
131133  4  0  0  0  0
133134  1  0  0  0  0
134135  4  0  0  0  0
135136  4  0  0  0  0
136137  4  0  0  0  0
137138  1  0  0  0  0
138139  3  0  0  0  0
137140  4  0  0  0  0
134141  4  0  0  0  0
140141  4  0  0  0  0
133142  4  0  0  0  0
142143  1  0  0  0  0
143144  2  0  0  0  0
142145  4  0  0  0  0
144146  1  0  0  0  0
145146  4  0  0  0  0
124147  4  0  0  0  0
146147  4  0  0  0  0
147148  4  0  0  0  0
148149  4  0  0  0  0
149150  2  0  0  0  0
150151  4  0  0  0  0
148152  4  0  0  0  0
151152  4  0  0  0  0
151153  4  0  0  0  0
153154  1  0  0  0  0
154155  4  0  0  0  0
155156  4  0  0  0  0
156157  4  0  0  0  0
157158  1  0  0  0  0
158159  3  0  0  0  0
157160  4  0  0  0  0
154161  4  0  0  0  0
160161  4  0  0  0  0
153162  4  0  0  0  0
162163  1  0  0  0  0
163164  2  0  0  0  0
127165  4  0  0  0  0
164165  1  0  0  0  0
162166  4  0  0  0  0
165166  4  0  0  0  0
129167  1  0  0  0  0
130168  1  0  0  0  0
132169  1  0  0  0  0
135170  1  0  0  0  0
136171  1  0  0  0  0
140172  1  0  0  0  0
141173  1  0  0  0  0
143174  1  0  0  0  0
144175  1  0  0  0  0
149176  1  0  0  0  0
150177  1  0  0  0  0
152178  1  0  0  0  0
155179  1  0  0  0  0
156180  1  0  0  0  0
160181  1  0  0  0  0
161182  1  0  0  0  0
163183  1  0  0  0  0
164184  1  0  0  0  0
M  END
