 xtb: 6.5.1 (b24c23e)
          07302211263D

118137  0     0  0            999 V2000
   18.1822    0.0423    0.0213 Ni  0  0  0  0  0  0  0  0  0  0  0  0
   14.7887    0.0565    0.1401 C   0  0  0  0  0  0  0  0  0  0  0  0
   15.4442    1.2674    0.2152 C   0  0  0  0  0  0  0  0  0  0  0  0
   14.7687    2.5255    0.3092 C   0  0  0  0  0  0  0  0  0  0  0  0
   15.7278    3.4723    0.4310 C   0  0  0  0  0  0  0  0  0  0  0  0
   16.9885    2.7891    0.4250 C   0  0  0  0  0  0  0  0  0  0  0  0
   16.8053    1.4392    0.2595 N   0  0  0  0  0  0  0  0  0  0  0  0
   18.2118    3.4230    0.5994 C   0  0  0  0  0  0  0  0  0  0  0  0
   18.2227    4.8812    0.8640 C   0  0  0  0  0  0  0  0  0  0  0  0
   17.6116    5.3928    2.0111 C   0  0  0  0  0  0  0  0  0  0  0  0
   17.6203    6.7520    2.2673 C   0  0  0  0  0  0  0  0  0  0  0  0
   18.2391    7.6296    1.3720 C   0  0  0  0  0  0  0  0  0  0  0  0
   18.2455    9.0293    1.6322 C   0  0  0  0  0  0  0  0  0  0  0  0
   18.2490   10.1595    1.8484 N   0  0  0  0  0  0  0  0  0  0  0  0
   18.8497    7.1226    0.2212 C   0  0  0  0  0  0  0  0  0  0  0  0
   18.8425    5.7613   -0.0256 C   0  0  0  0  0  0  0  0  0  0  0  0
   19.4230    2.7456    0.5515 C   0  0  0  0  0  0  0  0  0  0  0  0
   20.6902    3.3683    0.7885 C   0  0  0  0  0  0  0  0  0  0  0  0
   21.6340    2.4133    0.6113 C   0  0  0  0  0  0  0  0  0  0  0  0
   19.5883    1.4105    0.2620 N   0  0  0  0  0  0  0  0  0  0  0  0
   20.9423    1.2101    0.2732 C   0  0  0  0  0  0  0  0  0  0  0  0
   21.5955    0.0167   -0.0381 C   0  0  0  0  0  0  0  0  0  0  0  0
   20.9139   -1.1619   -0.3449 C   0  0  0  0  0  0  0  0  0  0  0  0
   21.5748   -2.3671   -0.7337 C   0  0  0  0  0  0  0  0  0  0  0  0
   20.6099   -3.3012   -0.9086 C   0  0  0  0  0  0  0  0  0  0  0  0
   19.3615   -2.6665   -0.6108 C   0  0  0  0  0  0  0  0  0  0  0  0
   19.5579   -1.3411   -0.2962 N   0  0  0  0  0  0  0  0  0  0  0  0
   18.1408   -3.3286   -0.6137 C   0  0  0  0  0  0  0  0  0  0  0  0
   18.1191   -4.7814   -0.9050 C   0  0  0  0  0  0  0  0  0  0  0  0
   17.4285   -5.2672   -2.0177 C   0  0  0  0  0  0  0  0  0  0  0  0
   17.4052   -6.6220   -2.2963 C   0  0  0  0  0  0  0  0  0  0  0  0
   18.0717   -7.5212   -1.4586 C   0  0  0  0  0  0  0  0  0  0  0  0
   18.0479   -8.9162   -1.7415 C   0  0  0  0  0  0  0  0  0  0  0  0
   18.0247  -10.0432   -1.9731 N   0  0  0  0  0  0  0  0  0  0  0  0
   18.7616   -7.0402   -0.3418 C   0  0  0  0  0  0  0  0  0  0  0  0
   18.7851   -5.6835   -0.0723 C   0  0  0  0  0  0  0  0  0  0  0  0
   16.9373   -2.6869   -0.3511 C   0  0  0  0  0  0  0  0  0  0  0  0
   15.6730   -3.3599   -0.2797 C   0  0  0  0  0  0  0  0  0  0  0  0
   14.7348   -2.4093   -0.0622 C   0  0  0  0  0  0  0  0  0  0  0  0
   15.4267   -1.1585    0.0057 C   0  0  0  0  0  0  0  0  0  0  0  0
   16.7791   -1.3397   -0.1443 N   0  0  0  0  0  0  0  0  0  0  0  0
   13.7059    0.0607    0.1824 H   0  0  0  0  0  0  0  0  0  0  0  0
   13.6977    2.6477    0.2801 H   0  0  0  0  0  0  0  0  0  0  0  0
   15.6063    4.5402    0.5126 H   0  0  0  0  0  0  0  0  0  0  0  0
   17.1404    4.7138    2.7127 H   0  0  0  0  0  0  0  0  0  0  0  0
   17.1492    7.1412    3.1623 H   0  0  0  0  0  0  0  0  0  0  0  0
   19.3270    7.8006   -0.4766 H   0  0  0  0  0  0  0  0  0  0  0  0
   19.3076    5.3726   -0.9244 H   0  0  0  0  0  0  0  0  0  0  0  0
   20.8293    4.4009    1.0638 H   0  0  0  0  0  0  0  0  0  0  0  0
   22.7047    2.5008    0.7018 H   0  0  0  0  0  0  0  0  0  0  0  0
   22.6404   -2.4681   -0.8616 H   0  0  0  0  0  0  0  0  0  0  0  0
   20.7232   -4.3273   -1.2179 H   0  0  0  0  0  0  0  0  0  0  0  0
   16.9197   -4.5718   -2.6756 H   0  0  0  0  0  0  0  0  0  0  0  0
   16.8720   -6.9909   -3.1646 H   0  0  0  0  0  0  0  0  0  0  0  0
   19.2762   -7.7348    0.3117 H   0  0  0  0  0  0  0  0  0  0  0  0
   19.3110   -5.3156    0.8015 H   0  0  0  0  0  0  0  0  0  0  0  0
   15.5353   -4.4245   -0.3768 H   0  0  0  0  0  0  0  0  0  0  0  0
   13.6679   -2.5241    0.0448 H   0  0  0  0  0  0  0  0  0  0  0  0
   29.0458   -0.0411    0.0235 Ni  0  0  0  0  0  0  0  0  0  0  0  0
   32.4392   -0.0491    0.1425 C   0  0  0  0  0  0  0  0  0  0  0  0
   31.7837   -1.2542    0.2820 C   0  0  0  0  0  0  0  0  0  0  0  0
   32.4591   -2.5056    0.4427 C   0  0  0  0  0  0  0  0  0  0  0  0
   31.5000   -3.4444    0.6152 C   0  0  0  0  0  0  0  0  0  0  0  0
   30.2393   -2.7624    0.5731 C   0  0  0  0  0  0  0  0  0  0  0  0
   30.4225   -1.4233    0.3356 N   0  0  0  0  0  0  0  0  0  0  0  0
   29.0161   -3.3861    0.7814 C   0  0  0  0  0  0  0  0  0  0  0  0
   29.0057   -4.8276    1.1254 C   0  0  0  0  0  0  0  0  0  0  0  0
   29.6170   -5.2748    2.2990 C   0  0  0  0  0  0  0  0  0  0  0  0
   29.6083   -6.6177    2.6303 C   0  0  0  0  0  0  0  0  0  0  0  0
   28.9893   -7.5436    1.7853 C   0  0  0  0  0  0  0  0  0  0  0  0
   28.9804   -8.9264    2.1237 C   0  0  0  0  0  0  0  0  0  0  0  0
   28.9761  -10.0429    2.4021 N   0  0  0  0  0  0  0  0  0  0  0  0
   28.3790   -7.1013    0.6079 C   0  0  0  0  0  0  0  0  0  0  0  0
   28.3862   -5.7558    0.2859 C   0  0  0  0  0  0  0  0  0  0  0  0
   27.8048   -2.7124    0.6970 C   0  0  0  0  0  0  0  0  0  0  0  0
   26.5375   -3.3216    0.9665 C   0  0  0  0  0  0  0  0  0  0  0  0
   25.5938   -2.3774    0.7386 C   0  0  0  0  0  0  0  0  0  0  0  0
   27.6396   -1.3946    0.3368 N   0  0  0  0  0  0  0  0  0  0  0  0
   26.2856   -1.1938    0.3373 C   0  0  0  0  0  0  0  0  0  0  0  0
   25.6324   -0.0186   -0.0369 C   0  0  0  0  0  0  0  0  0  0  0  0
   26.3141    1.1420   -0.4060 C   0  0  0  0  0  0  0  0  0  0  0  0
   25.6532    2.3247   -0.8587 C   0  0  0  0  0  0  0  0  0  0  0  0
   26.6181    3.2480   -1.0835 C   0  0  0  0  0  0  0  0  0  0  0  0
   27.8665    2.6301   -0.7521 C   0  0  0  0  0  0  0  0  0  0  0  0
   27.6701    1.3235   -0.3669 N   0  0  0  0  0  0  0  0  0  0  0  0
   29.0873    3.2911   -0.7906 C   0  0  0  0  0  0  0  0  0  0  0  0
   29.1091    4.7259   -1.1605 C   0  0  0  0  0  0  0  0  0  0  0  0
   29.7996    5.1499   -2.2982 C   0  0  0  0  0  0  0  0  0  0  0  0
   29.8223    6.4873   -2.6511 C   0  0  0  0  0  0  0  0  0  0  0  0
   29.1553    7.4309   -1.8643 C   0  0  0  0  0  0  0  0  0  0  0  0
   29.1779    8.8081   -2.2241 C   0  0  0  0  0  0  0  0  0  0  0  0
   29.1987    9.9204   -2.5187 N   0  0  0  0  0  0  0  0  0  0  0  0
   28.4659    7.0120   -0.7225 C   0  0  0  0  0  0  0  0  0  0  0  0
   28.4430    5.6722   -0.3786 C   0  0  0  0  0  0  0  0  0  0  0  0
   30.2908    2.6643   -0.4938 C   0  0  0  0  0  0  0  0  0  0  0  0
   31.5551    3.3402   -0.4586 C   0  0  0  0  0  0  0  0  0  0  0  0
   32.4933    2.4025   -0.1908 C   0  0  0  0  0  0  0  0  0  0  0  0
   31.8013    1.1571   -0.0561 C   0  0  0  0  0  0  0  0  0  0  0  0
   30.4489    1.3301   -0.2153 N   0  0  0  0  0  0  0  0  0  0  0  0
   33.5221   -0.0511    0.1848 H   0  0  0  0  0  0  0  0  0  0  0  0
   33.5301   -2.6293    0.4198 H   0  0  0  0  0  0  0  0  0  0  0  0
   31.6214   -4.5065    0.7534 H   0  0  0  0  0  0  0  0  0  0  0  0
   30.0882   -4.5579    2.9618 H   0  0  0  0  0  0  0  0  0  0  0  0
   30.0794   -6.9566    3.5455 H   0  0  0  0  0  0  0  0  0  0  0  0
   27.9017   -7.8170   -0.0512 H   0  0  0  0  0  0  0  0  0  0  0  0
   27.9210   -5.4177   -0.6332 H   0  0  0  0  0  0  0  0  0  0  0  0
   26.3983   -4.3382    1.2960 H   0  0  0  0  0  0  0  0  0  0  0  0
   24.5231   -2.4600    0.8334 H   0  0  0  0  0  0  0  0  0  0  0  0
   24.5876    2.4188   -0.9918 H   0  0  0  0  0  0  0  0  0  0  0  0
   26.5049    4.2561   -1.4474 H   0  0  0  0  0  0  0  0  0  0  0  0
   30.3087    4.4195   -2.9168 H   0  0  0  0  0  0  0  0  0  0  0  0
   30.3553    6.8080   -3.5385 H   0  0  0  0  0  0  0  0  0  0  0  0
   27.9511    7.7414   -0.1082 H   0  0  0  0  0  0  0  0  0  0  0  0
   27.9174    5.3528    0.5142 H   0  0  0  0  0  0  0  0  0  0  0  0
   31.6928    4.3981   -0.6124 H   0  0  0  0  0  0  0  0  0  0  0  0
   33.5601    2.5227   -0.0903 H   0  0  0  0  0  0  0  0  0  0  0  0
   23.0063    0.0033   -0.0467 C   0  0  0  0  0  0  0  0  0  0  0  0
   24.2216   -0.0057   -0.0465 C   0  0  0  0  0  0  0  0  0  0  0  0
  2  3  4  0  0  0  0
  3  4  4  0  0  0  0
  4  5  2  0  0  0  0
  5  6  4  0  0  0  0
  1  7  1  0  0  0  0
  3  7  4  0  0  0  0
  6  7  4  0  0  0  0
  6  8  4  0  0  0  0
  8  9  1  0  0  0  0
  9 10  4  0  0  0  0
 10 11  4  0  0  0  0
 11 12  4  0  0  0  0
 12 13  1  0  0  0  0
 13 14  3  0  0  0  0
 12 15  4  0  0  0  0
  9 16  4  0  0  0  0
 15 16  4  0  0  0  0
  8 17  4  0  0  0  0
 17 18  4  0  0  0  0
 18 19  2  0  0  0  0
  1 20  1  0  0  0  0
 17 20  4  0  0  0  0
 19 21  4  0  0  0  0
 20 21  4  0  0  0  0
 21 22  4  0  0  0  0
 22 23  4  0  0  0  0
 23 24  4  0  0  0  0
 24 25  2  0  0  0  0
 25 26  4  0  0  0  0
  1 27  1  0  0  0  0
 23 27  4  0  0  0  0
 26 27  4  0  0  0  0
 26 28  4  0  0  0  0
 28 29  1  0  0  0  0
 29 30  4  0  0  0  0
 30 31  4  0  0  0  0
 31 32  4  0  0  0  0
 32 33  1  0  0  0  0
 33 34  3  0  0  0  0
 32 35  4  0  0  0  0
 29 36  4  0  0  0  0
 35 36  4  0  0  0  0
 28 37  4  0  0  0  0
 37 38  4  0  0  0  0
 38 39  2  0  0  0  0
  2 40  4  0  0  0  0
 39 40  4  0  0  0  0
  1 41  1  0  0  0  0
 37 41  4  0  0  0  0
 40 41  4  0  0  0  0
  2 42  1  0  0  0  0
  4 43  1  0  0  0  0
  5 44  1  0  0  0  0
 10 45  1  0  0  0  0
 11 46  1  0  0  0  0
 15 47  1  0  0  0  0
 16 48  1  0  0  0  0
 18 49  1  0  0  0  0
 19 50  1  0  0  0  0
 24 51  1  0  0  0  0
 25 52  1  0  0  0  0
 30 53  1  0  0  0  0
 31 54  1  0  0  0  0
 35 55  1  0  0  0  0
 36 56  1  0  0  0  0
 38 57  1  0  0  0  0
 39 58  1  0  0  0  0
 60 61  4  0  0  0  0
 61 62  4  0  0  0  0
 62 63  2  0  0  0  0
 63 64  4  0  0  0  0
 59 65  1  0  0  0  0
 61 65  4  0  0  0  0
 64 65  4  0  0  0  0
 64 66  4  0  0  0  0
 66 67  1  0  0  0  0
 67 68  4  0  0  0  0
 68 69  4  0  0  0  0
 69 70  4  0  0  0  0
 70 71  1  0  0  0  0
 71 72  3  0  0  0  0
 70 73  4  0  0  0  0
 67 74  4  0  0  0  0
 73 74  4  0  0  0  0
 66 75  4  0  0  0  0
 75 76  4  0  0  0  0
 76 77  2  0  0  0  0
 59 78  1  0  0  0  0
 75 78  4  0  0  0  0
 77 79  4  0  0  0  0
 78 79  4  0  0  0  0
 79 80  4  0  0  0  0
 80 81  4  0  0  0  0
 81 82  4  0  0  0  0
 82 83  2  0  0  0  0
 83 84  4  0  0  0  0
 59 85  1  0  0  0  0
 81 85  4  0  0  0  0
 84 85  4  0  0  0  0
 84 86  4  0  0  0  0
 86 87  1  0  0  0  0
 87 88  4  0  0  0  0
 88 89  4  0  0  0  0
 89 90  4  0  0  0  0
 90 91  1  0  0  0  0
 91 92  3  0  0  0  0
 90 93  4  0  0  0  0
 87 94  4  0  0  0  0
 93 94  4  0  0  0  0
 86 95  4  0  0  0  0
 95 96  4  0  0  0  0
 96 97  2  0  0  0  0
 60 98  4  0  0  0  0
 97 98  4  0  0  0  0
 59 99  1  0  0  0  0
 95 99  4  0  0  0  0
 98 99  4  0  0  0  0
 60100  1  0  0  0  0
 62101  1  0  0  0  0
 63102  1  0  0  0  0
 68103  1  0  0  0  0
 69104  1  0  0  0  0
 73105  1  0  0  0  0
 74106  1  0  0  0  0
 76107  1  0  0  0  0
 77108  1  0  0  0  0
 82109  1  0  0  0  0
 83110  1  0  0  0  0
 88111  1  0  0  0  0
 89112  1  0  0  0  0
 93113  1  0  0  0  0
 94114  1  0  0  0  0
 96115  1  0  0  0  0
 97116  1  0  0  0  0
 22117  4  0  0  0  0
 80118  4  0  0  0  0
117118  3  0  0  0  0
M  END
