486

C 85.819654 0.069811 0.114551
C 86.548918 -1.296702 -0.066504
C 85.945758 -2.533561 -0.093298
C 86.967935 -3.488733 -0.330736
C 88.160563 -2.800986 -0.448151
N 87.899425 -1.471072 -0.232090
C 89.579897 -3.416667 -0.794167
C 89.611600 -4.805220 -1.305895
C 89.406811 -5.056770 -2.669250
C 89.398152 -6.366422 -3.150025
C 89.593746 -7.422060 -2.255210
S 89.488791 -9.094582 -2.820276
O 88.901594 -9.098036 -4.145100
O 88.357169 -9.745805 -1.866231
O 90.744932 -9.754718 -2.540872
C 89.809572 -7.186122 -0.893832
C 89.820465 -5.873706 -0.423057
C 90.711206 -2.674287 -0.662583
C 92.012743 -3.190366 -1.033896
C 92.916095 -2.240198 -0.822595
N 90.909972 -1.394811 -0.217079
C 92.240605 -1.074296 -0.288192
C 92.909209 0.062323 0.042218
C 92.132254 1.298072 0.663037
C 92.667453 2.265570 1.490464
C 91.642182 3.203279 1.769489
C 90.508126 2.777428 1.111012
N 90.801158 1.587970 0.487049
C 89.101910 3.510616 1.092533
C 89.083010 4.967484 1.343829
C 89.460588 5.856063 0.328719
C 89.495987 7.228637 0.573266
C 89.148389 7.706419 1.841007
S 89.312544 9.434766 2.179686
O 88.251727 10.137979 1.494335
O 90.715215 9.834310 1.480744
O 89.547045 9.597691 3.600085
C 88.760384 6.833726 2.861303
C 88.727452 5.462586 2.606697
C 87.974351 2.800933 0.832422
C 86.655515 3.406449 0.783691
C 85.767617 2.451661 0.521916
C 86.485413 1.208082 0.384820
N 87.806458 1.470683 0.569272
H 84.742450 0.090791 0.000426
H 84.890592 -2.724017 0.029163
H 86.842378 -4.556254 -0.427853
H 88.597778 -0.732260 -0.196808
H 89.249783 -4.216209 -3.343039
H 89.229195 -6.543788 -4.208309
H 87.481979 -9.517093 -2.240966
H 89.965552 -8.007446 -0.199881
H 89.985583 -5.662508 0.632146
H 92.223592 -4.169351 -1.425723
H 93.968527 -2.344161 -1.014045
H 93.685653 2.299738 1.848094
H 91.723779 4.089770 2.379766
H 90.120335 0.990726 0.024711
H 89.732799 5.459022 -0.647840
H 89.797396 7.905664 -0.221334
H 91.440866 9.515509 2.056064
H 88.496777 7.199756 3.849671
H 88.435368 4.760039 3.385694
H 86.428618 4.446961 0.930157
H 84.705049 2.578674 0.420962
C 192.281318 0.017508 0.099487
C 191.552054 1.270983 0.673017
C 192.155214 2.332615 1.308214
C 191.133037 3.267755 1.615207
C 189.940409 2.747819 1.149966
N 190.201547 1.506716 0.625546
C 188.521075 3.453228 1.184439
C 188.489372 4.901253 1.489676
C 188.694161 5.839436 0.468977
C 188.702821 7.204184 0.758459
C 188.507226 7.622152 2.077689
S 188.612182 9.339014 2.488802
O 189.199378 10.046613 1.368769
O 189.743803 9.383017 3.643080
O 187.356040 9.749407 3.076530
C 188.291400 6.698241 3.105017
C 188.280507 5.336472 2.805598
C 187.389766 2.754587 0.900992
C 186.088229 3.389107 0.861065
C 185.184877 2.472107 0.534601
N 187.191000 1.434154 0.597693
C 185.860367 1.200565 0.366993
C 185.191763 0.062323 0.042218
C 185.968718 -1.314332 -0.089364
C 185.433519 -2.573725 0.096694
C 186.458790 -3.516196 -0.165794
C 187.592846 -2.805339 -0.496886
N 187.299814 -1.466211 -0.392589
C 188.999062 -3.416379 -0.902517
C 189.017962 -4.783729 -1.464627
C 188.640385 -4.996246 -2.796865
C 188.604986 -6.288626 -3.319854
C 188.952583 -7.367527 -2.500455
S 188.788429 -9.011246 -3.132968
O 189.849245 -9.242193 -4.087367
O 187.385758 -8.977815 -3.937355
O 188.553927 -9.904723 -2.016825
C 189.340588 -7.171221 -1.172275
C 189.373521 -5.874705 -0.658567
C 190.126621 -2.677061 -0.745300
C 191.445457 -3.163896 -1.108640
C 192.333355 -2.216137 -0.822461
C 191.615559 -1.090145 -0.277094
N 190.294514 -1.410626 -0.260577
H 193.358522 0.060445 -0.008314
H 193.210380 2.428758 1.513218
H 191.258595 4.223396 2.100782
H 189.503195 0.862319 0.262448
H 188.851189 5.486033 -0.548687
H 188.871777 7.917280 -0.043362
H 190.618993 9.388664 3.204099
H 188.135420 7.024630 4.129522
H 188.115390 4.596365 3.586814
H 185.877380 4.426531 1.049986
H 184.132445 2.661977 0.427777
H 184.415319 -2.792882 0.381363
H 186.377193 -4.591490 -0.120532
H 187.980637 -0.714543 -0.466425
H 188.368173 -4.140597 -3.412636
H 188.303576 -6.439288 -4.352838
H 186.660106 -9.013866 -3.280599
H 189.604195 -8.006891 -0.530010
H 189.665604 -5.694132 0.374778
H 191.672354 -4.122914 -1.538061
H 193.395924 -2.269995 -0.975508
C 99.236317 0.063425 0.050708
C 98.027377 0.049970 0.042261
C 96.605849 0.058789 0.030278
C 95.394179 0.066228 0.041141
C 100.652921 0.056750 0.051241
C 101.873617 0.066228 0.041141
C 115.403522 0.063425 0.050708
C 114.194583 0.049970 0.042261
C 112.773054 0.058789 0.030278
C 111.561384 0.066228 0.041141
C 116.820126 0.056750 0.051241
C 118.040822 0.066228 0.041141
C 131.570727 0.063425 0.050708
C 130.361788 0.049970 0.042261
C 128.940259 0.058789 0.030278
C 127.728590 0.066228 0.041141
C 132.987332 0.056750 0.051241
C 134.208028 0.066228 0.041141
C 147.737933 0.063425 0.050708
C 146.528993 0.049970 0.042261
C 145.107464 0.058789 0.030278
C 143.895795 0.066228 0.041141
C 149.154537 0.056750 0.051241
C 150.375233 0.066228 0.041141
C 163.905138 0.063425 0.050708
C 162.696199 0.049970 0.042261
C 161.274670 0.058789 0.030278
C 160.063000 0.066228 0.041141
C 165.321742 0.056750 0.051241
C 166.542438 0.066228 0.041141
C 180.072343 0.063425 0.050708
C 178.863404 0.049970 0.042261
C 177.441875 0.058789 0.030278
C 176.230205 0.066228 0.041141
C 181.488947 0.056750 0.051241
C 182.709643 0.066228 0.041141
C 103.210353 -0.032769 -0.021779
C 104.007531 0.435867 -1.306984
C 103.511015 0.553112 -2.589048
C 104.550706 1.079490 -3.398470
C 105.649891 1.261371 -2.585727
N 105.332685 0.794177 -1.335401
C 107.035701 1.897427 -3.004343
C 107.022050 2.918018 -4.074899
C 107.345401 2.567451 -5.392818
C 107.297480 3.524562 -6.405716
C 106.931538 4.837029 -6.089677
S 106.797052 6.018498 -7.399517
O 106.185523 7.223359 -6.876158
O 105.678022 5.374180 -8.371959
O 108.049482 6.051561 -8.119200
C 106.623419 5.205985 -4.777406
C 106.666117 4.239565 -3.772339
C 108.173443 1.550560 -2.349417
C 109.458808 2.135928 -2.668401
C 110.370281 1.610612 -1.856606
N 108.385433 0.672512 -1.323823
C 109.710310 0.665560 -0.978622
C 110.375751 -0.032769 -0.021779
C 109.581310 -1.035678 0.912741
C 110.088012 -2.154407 1.541204
C 109.049451 -2.694752 2.343664
C 107.938760 -1.895278 2.170545
N 108.251496 -0.934953 1.241597
C 106.549082 -2.042576 2.912677
C 106.555678 -2.657383 4.258736
C 106.151412 -3.988651 4.430849
C 106.137157 -4.560055 5.702596
C 106.537575 -3.792607 6.801040
S 106.408666 -4.491037 8.420834
O 107.411785 -5.523563 8.553354
O 104.954808 -5.199934 8.419104
O 106.291116 -3.409329 9.377046
C 106.957057 -2.468826 6.644217
C 106.967411 -1.905600 5.367864
C 105.410989 -1.566269 2.342431
C 104.123362 -1.632930 3.003213
C 103.213193 -1.084408 2.205276
C 103.874840 -0.640256 0.995811
N 105.200102 -0.952403 1.139678
H 102.508341 0.307017 -2.903961
H 104.496533 1.315324 -4.450036
H 105.988415 0.685022 -0.567337
H 107.630779 1.540233 -5.612357
H 107.542831 3.240791 -7.425646
H 104.797854 5.577114 -7.993697
H 106.342353 6.224353 -4.523272
H 106.421483 4.498002 -2.742988
H 109.653936 2.872720 -3.427050
H 111.416256 1.859626 -1.865032
H 111.097302 -2.527656 1.455452
H 109.113822 -3.557150 2.989991
H 107.592839 -0.278662 0.832470
H 105.837323 -4.562875 3.560877
H 105.811819 -5.589580 5.823692
H 104.278778 -4.502036 8.552068
H 107.263234 -1.866457 7.495223
H 107.282459 -0.873664 5.220248
H 103.926251 -2.045375 3.975673
H 102.167625 -0.990459 2.435900
C 119.377558 -0.032769 -0.021779
C 120.174737 0.435867 -1.306984
C 119.678220 0.553112 -2.589048
C 120.717912 1.079490 -3.398470
C 121.817096 1.261371 -2.585727
N 121.499890 0.794177 -1.335401
C 123.202907 1.897427 -3.004343
C 123.189256 2.918018 -4.074899
C 123.512606 2.567451 -5.392818
C 123.464685 3.524562 -6.405716
C 123.098743 4.837029 -6.089677
S 122.964257 6.018498 -7.399517
O 122.352728 7.223359 -6.876158
O 121.845228 5.374180 -8.371959
O 124.216687 6.051561 -8.119200
C 122.790624 5.205985 -4.777406
C 122.833322 4.239565 -3.772339
C 124.340648 1.550560 -2.349417
C 125.626013 2.135928 -2.668401
C 126.537486 1.610612 -1.856606
N 124.552639 0.672512 -1.323823
C 125.877515 0.665560 -0.978622
C 126.542956 -0.032769 -0.021779
C 125.748515 -1.035678 0.912741
C 126.255217 -2.154407 1.541204
C 125.216657 -2.694752 2.343664
C 124.105966 -1.895278 2.170545
N 124.418702 -0.934953 1.241597
C 122.716287 -2.042576 2.912677
C 122.722883 -2.657383 4.258736
C 122.318617 -3.988651 4.430849
C 122.304363 -4.560055 5.702596
C 122.704780 -3.792607 6.801040
S 122.575871 -4.491037 8.420834
O 123.578991 -5.523563 8.553354
O 121.122014 -5.199934 8.419104
O 122.458321 -3.409329 9.377046
C 123.124262 -2.468826 6.644217
C 123.134617 -1.905600 5.367864
C 121.578194 -1.566269 2.342431
C 120.290568 -1.632930 3.003213
C 119.380398 -1.084408 2.205276
C 120.042045 -0.640256 0.995811
N 121.367308 -0.952403 1.139678
H 118.675546 0.307017 -2.903961
H 120.663738 1.315324 -4.450036
H 122.155620 0.685022 -0.567337
H 123.797984 1.540233 -5.612357
H 123.710036 3.240791 -7.425646
H 120.965060 5.577114 -7.993697
H 122.509558 6.224353 -4.523272
H 122.588689 4.498002 -2.742988
H 125.821141 2.872720 -3.427050
H 127.583462 1.859626 -1.865032
H 127.264507 -2.527656 1.455452
H 125.281027 -3.557150 2.989991
H 123.760044 -0.278662 0.832470
H 122.004528 -4.562875 3.560877
H 121.979024 -5.589580 5.823692
H 120.445983 -4.502036 8.552068
H 123.430439 -1.866457 7.495223
H 123.449664 -0.873664 5.220248
H 120.093456 -2.045375 3.975673
H 118.334830 -0.990459 2.435900
C 135.544764 -0.032769 -0.021779
C 136.341942 0.435867 -1.306984
C 135.845426 0.553112 -2.589048
C 136.885117 1.079490 -3.398470
C 137.984301 1.261371 -2.585727
N 137.667095 0.794177 -1.335401
C 139.370112 1.897427 -3.004343
C 139.356461 2.918018 -4.074899
C 139.679812 2.567451 -5.392818
C 139.631891 3.524562 -6.405716
C 139.265949 4.837029 -6.089677
S 139.131463 6.018498 -7.399517
O 138.519933 7.223359 -6.876158
O 138.012433 5.374180 -8.371959
O 140.383892 6.051561 -8.119200
C 138.957829 5.205985 -4.777406
C 139.000528 4.239565 -3.772339
C 140.507854 1.550560 -2.349417
C 141.793218 2.135928 -2.668401
C 142.704692 1.610612 -1.856606
N 140.719844 0.672512 -1.323823
C 142.044721 0.665560 -0.978622
C 142.710161 -0.032769 -0.021779
C 141.915720 -1.035678 0.912741
C 142.422422 -2.154407 1.541204
C 141.383862 -2.694752 2.343664
C 140.273171 -1.895278 2.170545
N 140.585907 -0.934953 1.241597
C 138.883492 -2.042576 2.912677
C 138.890088 -2.657383 4.258736
C 138.485822 -3.988651 4.430849
C 138.471568 -4.560055 5.702596
C 138.871986 -3.792607 6.801040
S 138.743077 -4.491037 8.420834
O 139.746196 -5.523563 8.553354
O 137.289219 -5.199934 8.419104
O 138.625526 -3.409329 9.377046
C 139.291468 -2.468826 6.644217
C 139.301822 -1.905600 5.367864
C 137.745400 -1.566269 2.342431
C 136.457773 -1.632930 3.003213
C 135.547603 -1.084408 2.205276
C 136.209250 -0.640256 0.995811
N 137.534513 -0.952403 1.139678
H 134.842752 0.307017 -2.903961
H 136.830943 1.315324 -4.450036
H 138.322825 0.685022 -0.567337
H 139.965190 1.540233 -5.612357
H 139.877241 3.240791 -7.425646
H 137.132265 5.577114 -7.993697
H 138.676764 6.224353 -4.523272
H 138.755894 4.498002 -2.742988
H 141.988346 2.872720 -3.427050
H 143.750667 1.859626 -1.865032
H 143.431712 -2.527656 1.455452
H 141.448232 -3.557150 2.989991
H 139.927249 -0.278662 0.832470
H 138.171734 -4.562875 3.560877
H 138.146229 -5.589580 5.823692
H 136.613189 -4.502036 8.552068
H 139.597645 -1.866457 7.495223
H 139.616869 -0.873664 5.220248
H 136.260661 -2.045375 3.975673
H 134.502035 -0.990459 2.435900
C 151.711969 -0.032769 -0.021779
C 152.509147 0.435867 -1.306984
C 152.012631 0.553112 -2.589048
C 153.052322 1.079490 -3.398470
C 154.151507 1.261371 -2.585727
N 153.834300 0.794177 -1.335401
C 155.537317 1.897427 -3.004343
C 155.523666 2.918018 -4.074899
C 155.847017 2.567451 -5.392818
C 155.799096 3.524562 -6.405716
C 155.433154 4.837029 -6.089677
S 155.298668 6.018498 -7.399517
O 154.687138 7.223359 -6.876158
O 154.179638 5.374180 -8.371959
O 156.551097 6.051561 -8.119200
C 155.125035 5.205985 -4.777406
C 155.167733 4.239565 -3.772339
C 156.675059 1.550560 -2.349417
C 157.960424 2.135928 -2.668401
C 158.871897 1.610612 -1.856606
N 156.887049 0.672512 -1.323823
C 158.211926 0.665560 -0.978622
C 158.877367 -0.032769 -0.021779
C 158.082925 -1.035678 0.912741
C 158.589628 -2.154407 1.541204
C 157.551067 -2.694752 2.343664
C 156.440376 -1.895278 2.170545
N 156.753112 -0.934953 1.241597
C 155.050698 -2.042576 2.912677
C 155.057293 -2.657383 4.258736
C 154.653028 -3.988651 4.430849
C 154.638773 -4.560055 5.702596
C 155.039191 -3.792607 6.801040
S 154.910282 -4.491037 8.420834
O 155.913401 -5.523563 8.553354
O 153.456424 -5.199934 8.419104
O 154.792731 -3.409329 9.377046
C 155.458673 -2.468826 6.644217
C 155.469027 -1.905600 5.367864
C 153.912605 -1.566269 2.342431
C 152.624978 -1.632930 3.003213
C 151.714808 -1.084408 2.205276
C 152.376456 -0.640256 0.995811
N 153.701718 -0.952403 1.139678
H 151.009957 0.307017 -2.903961
H 152.998149 1.315324 -4.450036
H 154.490030 0.685022 -0.567337
H 156.132395 1.540233 -5.612357
H 156.044446 3.240791 -7.425646
H 153.299470 5.577114 -7.993697
H 154.843969 6.224353 -4.523272
H 154.923099 4.498002 -2.742988
H 158.155552 2.872720 -3.427050
H 159.917872 1.859626 -1.865032
H 159.598917 -2.527656 1.455452
H 157.615438 -3.557150 2.989991
H 156.094454 -0.278662 0.832470
H 154.338939 -4.562875 3.560877
H 154.313435 -5.589580 5.823692
H 152.780394 -4.502036 8.552068
H 155.764850 -1.866457 7.495223
H 155.784075 -0.873664 5.220248
H 152.427866 -2.045375 3.975673
H 150.669241 -0.990459 2.435900
C 167.879174 -0.032769 -0.021779
C 168.676353 0.435867 -1.306984
C 168.179836 0.553112 -2.589048
C 169.219528 1.079490 -3.398470
C 170.318712 1.261371 -2.585727
N 170.001506 0.794177 -1.335401
C 171.704522 1.897427 -3.004343
C 171.690871 2.918018 -4.074899
C 172.014222 2.567451 -5.392818
C 171.966301 3.524562 -6.405716
C 171.600359 4.837029 -6.089677
S 171.465873 6.018498 -7.399517
O 170.854344 7.223359 -6.876158
O 170.346844 5.374180 -8.371959
O 172.718303 6.051561 -8.119200
C 171.292240 5.205985 -4.777406
C 171.334938 4.239565 -3.772339
C 172.842264 1.550560 -2.349417
C 174.127629 2.135928 -2.668401
C 175.039102 1.610612 -1.856606
N 173.054255 0.672512 -1.323823
C 174.379131 0.665560 -0.978622
C 175.044572 -0.032769 -0.021779
C 174.250131 -1.035678 0.912741
C 174.756833 -2.154407 1.541204
C 173.718272 -2.694752 2.343664
C 172.607581 -1.895278 2.170545
N 172.920317 -0.934953 1.241597
C 171.217903 -2.042576 2.912677
C 171.224499 -2.657383 4.258736
C 170.820233 -3.988651 4.430849
C 170.805978 -4.560055 5.702596
C 171.206396 -3.792607 6.801040
S 171.077487 -4.491037 8.420834
O 172.080606 -5.523563 8.553354
O 169.623629 -5.199934 8.419104
O 170.959937 -3.409329 9.377046
C 171.625878 -2.468826 6.644217
C 171.636233 -1.905600 5.367864
C 170.079810 -1.566269 2.342431
C 168.792183 -1.632930 3.003213
C 167.882014 -1.084408 2.205276
C 168.543661 -0.640256 0.995811
N 169.868923 -0.952403 1.139678
H 167.177162 0.307017 -2.903961
H 169.165354 1.315324 -4.450036
H 170.657236 0.685022 -0.567337
H 172.299600 1.540233 -5.612357
H 172.211652 3.240791 -7.425646
H 169.466676 5.577114 -7.993697
H 171.011174 6.224353 -4.523272
H 171.090304 4.498002 -2.742988
H 174.322757 2.872720 -3.427050
H 176.085077 1.859626 -1.865032
H 175.766123 -2.527656 1.455452
H 173.782643 -3.557150 2.989991
H 172.261660 -0.278662 0.832470
H 170.506144 -4.562875 3.560877
H 170.480640 -5.589580 5.823692
H 168.947599 -4.502036 8.552068
H 171.932055 -1.866457 7.495223
H 171.951280 -0.873664 5.220248
H 168.595072 -2.045375 3.975673
H 166.836446 -0.990459 2.435900
