130

Fe 16.617056 0.004247 0.016264
C 13.199032 -0.102768 0.105485
C 13.864323 -0.204361 1.259618
C 13.216461 -0.346890 2.558202
C 14.158587 -0.367905 3.482646
C 15.461625 -0.237656 2.816823
N 15.282146 -0.138992 1.403756
C 16.650781 -0.166725 3.447949
C 17.942267 -0.007055 2.730366
C 19.228993 0.209767 3.402872
C 20.163478 0.267380 2.476098
N 18.084803 -0.085582 1.442567
C 19.481926 0.080272 1.200970
C 20.078253 -0.000199 0.000055
C 19.320515 -0.210250 -1.254659
C 19.863622 -0.622857 -2.393121
C 18.819824 -0.611143 -3.398701
C 17.707652 -0.188019 -2.809299
C 16.419655 0.034974 -3.515467
C 16.437441 0.170916 -4.992456
C 15.794298 -0.776099 -5.803455
C 15.829759 -0.653679 -7.195266
C 16.516076 0.414937 -7.799768
C 16.557127 0.548982 -9.272605
O 17.241126 1.609102 -9.862195
O 15.974003 -0.293782 -10.007189
C 17.167221 1.355765 -6.983231
C 17.130240 1.232500 -5.591425
C 15.253137 0.118224 -2.847333
C 13.937503 0.370451 -3.432966
C 13.076059 0.321250 -2.435572
C 13.832237 0.051386 -1.213964
N 15.102218 -0.068307 -1.441538
N 17.933303 0.083935 -1.424704
C 16.690531 -0.238403 4.923784
C 16.626307 -1.479377 5.570837
C 16.665623 -1.547848 6.966355
C 16.770990 -0.374155 7.735114
C 16.813531 -0.440925 9.212457
O 16.916715 0.726142 9.965162
O 16.756954 -1.553267 9.803487
C 16.835835 0.867619 7.078717
C 16.795799 0.934260 5.683097
H 12.115785 -0.121393 0.133662
H 12.153022 -0.415120 2.748420
H 13.974478 -0.454704 4.545723
H 19.403988 0.302616 4.466547
H 21.219819 0.412596 2.659034
H 20.897031 -0.897953 -2.555988
H 18.936676 -0.877015 -4.441342
H 15.268527 -1.611098 -5.356639
H 15.322456 -1.397167 -7.797246
H 17.275369 1.710261 -10.869593
H 17.706647 2.187518 -7.418477
H 17.639332 1.966801 -4.979017
H 13.690514 0.564455 -4.468405
H 12.006780 0.464362 -2.519866
H 16.545621 -2.392431 4.993684
H 16.613905 -2.518951 7.442556
H 16.946639 0.691683 10.977182
H 16.917636 1.788433 7.642291
H 16.847115 1.898926 5.193107
Fe 32.275235 0.006087 -0.015534
C 35.693259 -0.089926 -0.116500
C 35.027967 -0.057757 -1.274649
C 35.675829 -0.049594 -2.581006
C 34.733704 0.036130 -3.501706
C 33.430666 0.088734 -2.825305
N 33.610145 0.023796 -1.410287
C 32.241509 0.231968 -3.444042
C 30.950024 0.307827 -2.712834
C 29.663298 0.600750 -3.355852
C 28.728813 0.551112 -2.428616
N 30.807488 0.081326 -1.442681
C 29.410364 0.218214 -1.183570
C 28.814038 -0.000199 0.000055
C 29.571776 -0.353531 1.222178
C 29.028669 -0.894664 2.305467
C 30.072467 -0.998983 3.305690
C 31.184639 -0.510717 2.769011
C 32.472636 -0.370641 3.496182
C 32.454850 -0.405920 4.978994
C 33.097993 -1.440134 5.675382
C 33.062532 -1.479023 7.072025
C 32.376214 -0.487242 7.795718
C 32.335163 -0.523926 9.274187
O 31.651165 0.461136 9.982088
O 32.918288 -1.445774 9.906691
C 31.725069 0.541467 7.093116
C 31.762051 0.579515 5.696380
C 33.639154 -0.210902 2.842104
C 34.954788 -0.027888 3.452915
C 35.816232 0.038250 2.456501
C 35.060053 -0.088948 1.211924
N 33.790073 -0.234085 1.424178
N 30.958988 -0.080917 1.425011
C 32.201760 0.330948 -4.918298
C 32.265983 -0.827135 -5.704133
C 32.226667 -0.734230 -7.098237
C 32.121301 0.520281 -7.726528
C 32.078760 0.624311 -9.201716
O 31.975576 1.870388 -9.814823
O 32.135336 -0.412458 -9.917069
C 32.056456 1.678082 -6.931319
C 32.096492 1.583347 -5.537324
H 36.776506 -0.105178 -0.146637
H 36.739269 -0.095434 -2.777822
H 34.917813 0.072496 -4.567701
H 29.488303 0.815634 -4.401725
H 27.672472 0.716454 -2.593588
H 27.995260 -1.186706 2.435526
H 29.955615 -1.383310 4.310717
H 33.623763 -2.218040 5.135261
H 33.569835 -2.286967 7.584256
H 31.616922 0.445456 10.994431
H 31.185644 1.317483 7.621369
H 31.252959 1.379536 5.172730
H 35.201777 0.045424 4.503819
H 36.885511 0.170687 2.556735
H 32.346670 -1.800650 -5.236116
H 32.278386 -1.643943 -7.683242
H 31.945652 1.952857 -10.824066
H 31.974654 2.657740 -7.384953
H 32.045175 2.485077 -4.939366
C 25.050134 0.001301 0.008435
C 23.841195 -0.012154 -0.000012
C 22.419666 -0.003335 -0.011995
C 21.207996 0.004104 -0.001132
C 26.466739 -0.005374 0.008968
C 27.687434 0.004104 -0.001132
