 xtb: 6.5.1 (b24c23e)
          07302204233D

177206  0     0  0            999 V2000
   34.9156   -0.0482   -0.1187 Ni  0  0  0  0  0  0  0  0  0  0  0  0
   31.5250    0.1775   -0.1541 C   0  0  0  0  0  0  0  0  0  0  0  0
   32.2223    1.0273    0.6789 C   0  0  0  0  0  0  0  0  0  0  0  0
   31.5982    1.9992    1.5239 C   0  0  0  0  0  0  0  0  0  0  0  0
   32.5839    2.5576    2.2662 C   0  0  0  0  0  0  0  0  0  0  0  0
   33.8056    1.9271    1.8690 C   0  0  0  0  0  0  0  0  0  0  0  0
   33.5823    1.0099    0.8799 N   0  0  0  0  0  0  0  0  0  0  0  0
   35.0377    2.1858    2.4714 C   0  0  0  0  0  0  0  0  0  0  0  0
   35.0878    3.1095    3.5383 C   0  0  0  0  0  0  0  0  0  0  0  0
   35.1223    3.9101    4.4491 C   0  0  0  0  0  0  0  0  0  0  0  0
   35.1663    4.8497    5.5049 C   0  0  0  0  0  0  0  0  0  0  0  0
   36.3634    5.1406    6.1689 C   0  0  0  0  0  0  0  0  0  0  0  0
   36.3525    6.0705    7.1934 C   0  0  0  0  0  0  0  0  0  0  0  0
   35.2528    6.7094    7.5842 N   0  0  0  0  0  0  0  0  0  0  0  0
   34.1106    6.4389    6.9573 C   0  0  0  0  0  0  0  0  0  0  0  0
   34.0140    5.5265    5.9219 C   0  0  0  0  0  0  0  0  0  0  0  0
   36.2237    1.5825    2.0503 C   0  0  0  0  0  0  0  0  0  0  0  0
   37.4943    1.8431    2.6501 C   0  0  0  0  0  0  0  0  0  0  0  0
   38.4171    1.1824    1.9089 C   0  0  0  0  0  0  0  0  0  0  0  0
   36.3556    0.7462    0.9724 N   0  0  0  0  0  0  0  0  0  0  0  0
   37.7038    0.5198    0.8632 C   0  0  0  0  0  0  0  0  0  0  0  0
   38.3269   -0.1819   -0.1677 C   0  0  0  0  0  0  0  0  0  0  0  0
   37.6192   -0.8543   -1.1633 C   0  0  0  0  0  0  0  0  0  0  0  0
   38.2473   -1.6094   -2.2011 C   0  0  0  0  0  0  0  0  0  0  0  0
   37.2564   -2.2466   -2.8716 C   0  0  0  0  0  0  0  0  0  0  0  0
   36.0288   -1.8672   -2.2466 C   0  0  0  0  0  0  0  0  0  0  0  0
   36.2556   -0.9913   -1.2174 N   0  0  0  0  0  0  0  0  0  0  0  0
   34.7859   -2.3812   -2.6201 C   0  0  0  0  0  0  0  0  0  0  0  0
   34.7385   -3.3720   -3.6249 C   0  0  0  0  0  0  0  0  0  0  0  0
   34.7032   -4.2346   -4.4773 C   0  0  0  0  0  0  0  0  0  0  0  0
   34.6632   -5.2414   -5.4693 C   0  0  0  0  0  0  0  0  0  0  0  0
   35.8293   -5.6720   -6.1128 C   0  0  0  0  0  0  0  0  0  0  0  0
   35.7370   -6.6611   -7.0757 C   0  0  0  0  0  0  0  0  0  0  0  0
   34.5865   -7.2309   -7.4252 N   0  0  0  0  0  0  0  0  0  0  0  0
   33.4737   -6.8277   -6.8174 C   0  0  0  0  0  0  0  0  0  0  0  0
   33.4573   -5.8460   -5.8427 C   0  0  0  0  0  0  0  0  0  0  0  0
   33.5892   -1.9456   -2.0499 C   0  0  0  0  0  0  0  0  0  0  0  0
   32.3021   -2.4205   -2.4567 C   0  0  0  0  0  0  0  0  0  0  0  0
   31.3853   -1.6884   -1.7799 C   0  0  0  0  0  0  0  0  0  0  0  0
   32.1173   -0.7772   -0.9541 C   0  0  0  0  0  0  0  0  0  0  0  0
   33.4708   -0.9583   -1.1112 N   0  0  0  0  0  0  0  0  0  0  0  0
   30.4441    0.2552   -0.1702 H   0  0  0  0  0  0  0  0  0  0  0  0
   30.5399    2.2052    1.5394 H   0  0  0  0  0  0  0  0  0  0  0  0
   32.5092    3.3230    3.0219 H   0  0  0  0  0  0  0  0  0  0  0  0
   37.2825    4.6437    5.8825 H   0  0  0  0  0  0  0  0  0  0  0  0
   37.2670    6.3154    7.7258 H   0  0  0  0  0  0  0  0  0  0  0  0
   33.2329    6.9785    7.3012 H   0  0  0  0  0  0  0  0  0  0  0  0
   33.0634    5.3366    5.4384 H   0  0  0  0  0  0  0  0  0  0  0  0
   37.6449    2.4623    3.5197 H   0  0  0  0  0  0  0  0  0  0  0  0
   39.4864    1.1427    2.0403 H   0  0  0  0  0  0  0  0  0  0  0  0
   39.3110   -1.6485   -2.3722 H   0  0  0  0  0  0  0  0  0  0  0  0
   37.3337   -2.9168   -3.7125 H   0  0  0  0  0  0  0  0  0  0  0  0
   36.7873   -5.2350   -5.8582 H   0  0  0  0  0  0  0  0  0  0  0  0
   36.6256   -7.0139   -7.5913 H   0  0  0  0  0  0  0  0  0  0  0  0
   32.5528   -7.3140   -7.1262 H   0  0  0  0  0  0  0  0  0  0  0  0
   32.5277   -5.5480   -5.3730 H   0  0  0  0  0  0  0  0  0  0  0  0
   32.1410   -3.2043   -3.1794 H   0  0  0  0  0  0  0  0  0  0  0  0
   30.3093   -1.7434   -1.8235 H   0  0  0  0  0  0  0  0  0  0  0  0
   56.6294   -0.2386   -0.1246 Ni  0  0  0  0  0  0  0  0  0  0  0  0
   60.0286   -0.1610   -0.1003 C   0  0  0  0  0  0  0  0  0  0  0  0
   59.4112   -1.3541   -0.4126 C   0  0  0  0  0  0  0  0  0  0  0  0
   60.1210   -2.5547   -0.7330 C   0  0  0  0  0  0  0  0  0  0  0  0
   59.1896   -3.5256   -0.8887 C   0  0  0  0  0  0  0  0  0  0  0  0
   57.9160   -2.9137   -0.6624 C   0  0  0  0  0  0  0  0  0  0  0  0
   58.0554   -1.5803   -0.3944 N   0  0  0  0  0  0  0  0  0  0  0  0
   56.7127   -3.6204   -0.6566 C   0  0  0  0  0  0  0  0  0  0  0  0
   56.7436   -5.0122   -0.8924 C   0  0  0  0  0  0  0  0  0  0  0  0
   56.7687   -6.2057   -1.1091 C   0  0  0  0  0  0  0  0  0  0  0  0
   56.7947   -7.5953   -1.3691 C   0  0  0  0  0  0  0  0  0  0  0  0
   55.6173   -8.3521   -1.3854 C   0  0  0  0  0  0  0  0  0  0  0  0
   55.6956   -9.7075   -1.6514 C   0  0  0  0  0  0  0  0  0  0  0  0
   56.8430  -10.3359   -1.8948 N   0  0  0  0  0  0  0  0  0  0  0  0
   57.9668   -9.6235   -1.8804 C   0  0  0  0  0  0  0  0  0  0  0  0
   57.9973   -8.2640   -1.6254 C   0  0  0  0  0  0  0  0  0  0  0  0
   55.4787   -3.0064   -0.4383 C   0  0  0  0  0  0  0  0  0  0  0  0
   54.2410   -3.7195   -0.4152 C   0  0  0  0  0  0  0  0  0  0  0  0
   53.2610   -2.7924   -0.2829 C   0  0  0  0  0  0  0  0  0  0  0  0
   55.2685   -1.6593   -0.2943 N   0  0  0  0  0  0  0  0  0  0  0  0
   53.9064   -1.5192   -0.2259 C   0  0  0  0  0  0  0  0  0  0  0  0
   53.2141   -0.3078   -0.2030 C   0  0  0  0  0  0  0  0  0  0  0  0
   53.8544    0.9298   -0.1377 C   0  0  0  0  0  0  0  0  0  0  0  0
   53.1550    2.1747   -0.0935 C   0  0  0  0  0  0  0  0  0  0  0  0
   54.0878    3.1373    0.1086 C   0  0  0  0  0  0  0  0  0  0  0  0
   55.3515    2.4746    0.1799 C   0  0  0  0  0  0  0  0  0  0  0  0
   55.2047    1.1233    0.0021 N   0  0  0  0  0  0  0  0  0  0  0  0
   56.5497    3.1348    0.4557 C   0  0  0  0  0  0  0  0  0  0  0  0
   56.5149    4.5218    0.7181 C   0  0  0  0  0  0  0  0  0  0  0  0
   56.4875    5.7121    0.9513 C   0  0  0  0  0  0  0  0  0  0  0  0
   56.4588    7.0985    1.2277 C   0  0  0  0  0  0  0  0  0  0  0  0
   55.2585    7.8182    1.2116 C   0  0  0  0  0  0  0  0  0  0  0  0
   55.2860    9.1731    1.4904 C   0  0  0  0  0  0  0  0  0  0  0  0
   56.4047    9.8345    1.7760 N   0  0  0  0  0  0  0  0  0  0  0  0
   57.5499    9.1573    1.7935 C   0  0  0  0  0  0  0  0  0  0  0  0
   57.6310    7.8017    1.5291 C   0  0  0  0  0  0  0  0  0  0  0  0
   57.7828    2.4817    0.4767 C   0  0  0  0  0  0  0  0  0  0  0  0
   59.0236    3.1477    0.7310 C   0  0  0  0  0  0  0  0  0  0  0  0
   60.0016    2.2259    0.5633 C   0  0  0  0  0  0  0  0  0  0  0  0
   59.3526    0.9993    0.2140 C   0  0  0  0  0  0  0  0  0  0  0  0
   57.9878    1.1617    0.1851 N   0  0  0  0  0  0  0  0  0  0  0  0
   61.1121   -0.1352   -0.0957 H   0  0  0  0  0  0  0  0  0  0  0  0
   61.1938   -2.6263   -0.8157 H   0  0  0  0  0  0  0  0  0  0  0  0
   59.3328   -4.5674   -1.1271 H   0  0  0  0  0  0  0  0  0  0  0  0
   54.6614   -7.8801   -1.1932 H   0  0  0  0  0  0  0  0  0  0  0  0
   54.7980  -10.3188   -1.6712 H   0  0  0  0  0  0  0  0  0  0  0  0
   58.8847  -10.1677   -2.0832 H   0  0  0  0  0  0  0  0  0  0  0  0
   58.9354   -7.7222   -1.6243 H   0  0  0  0  0  0  0  0  0  0  0  0
   54.1497   -4.7904   -0.4990 H   0  0  0  0  0  0  0  0  0  0  0  0
   52.1943   -2.9416   -0.2368 H   0  0  0  0  0  0  0  0  0  0  0  0
   52.0868    2.2808   -0.1932 H   0  0  0  0  0  0  0  0  0  0  0  0
   53.9485    4.2018    0.2074 H   0  0  0  0  0  0  0  0  0  0  0  0
   54.3245    7.3189    0.9841 H   0  0  0  0  0  0  0  0  0  0  0  0
   54.3696    9.7563    1.4849 H   0  0  0  0  0  0  0  0  0  0  0  0
   58.4435    9.7277    2.0303 H   0  0  0  0  0  0  0  0  0  0  0  0
   58.5850    7.2890    1.5545 H   0  0  0  0  0  0  0  0  0  0  0  0
   59.1151    4.1898    0.9922 H   0  0  0  0  0  0  0  0  0  0  0  0
   61.0689    2.3463    0.6585 H   0  0  0  0  0  0  0  0  0  0  0  0
   39.7401   -0.2346   -0.1971 C   0  0  0  0  0  0  0  0  0  0  0  0
   40.9526   -0.2938   -0.2319 C   0  0  0  0  0  0  0  0  0  0  0  0
   50.5890   -0.3734   -0.2802 C   0  0  0  0  0  0  0  0  0  0  0  0
   51.8029   -0.3390   -0.2426 C   0  0  0  0  0  0  0  0  0  0  0  0
   45.7692   -0.5224   -0.3985 Ni  0  0  0  0  0  0  0  0  0  0  0  0
   42.3633   -0.3730   -0.2862 C   0  0  0  0  0  0  0  0  0  0  0  0
   43.0162    0.1327   -1.4107 C   0  0  0  0  0  0  0  0  0  0  0  0
   42.3390    0.6853   -2.5406 C   0  0  0  0  0  0  0  0  0  0  0  0
   43.2974    1.1557   -3.3768 C   0  0  0  0  0  0  0  0  0  0  0  0
   44.5532    0.9031   -2.7438 C   0  0  0  0  0  0  0  0  0  0  0  0
   44.3749    0.2412   -1.5569 N   0  0  0  0  0  0  0  0  0  0  0  0
   45.7693    1.3993   -3.2161 C   0  0  0  0  0  0  0  0  0  0  0  0
   45.7771    2.1550   -4.4085 C   0  0  0  0  0  0  0  0  0  0  0  0
   45.7885    2.7989   -5.4367 C   0  0  0  0  0  0  0  0  0  0  0  0
   45.8028    3.5485   -6.6355 C   0  0  0  0  0  0  0  0  0  0  0  0
   46.9872    4.1119   -7.1243 C   0  0  0  0  0  0  0  0  0  0  0  0
   46.9483    4.8356   -8.3027 C   0  0  0  0  0  0  0  0  0  0  0  0
   45.8330    5.0256   -9.0030 N   0  0  0  0  0  0  0  0  0  0  0  0
   44.7029    4.4932   -8.5449 C   0  0  0  0  0  0  0  0  0  0  0  0
   44.6340    3.7535   -7.3777 C   0  0  0  0  0  0  0  0  0  0  0  0
   46.9750    1.2080   -2.5386 C   0  0  0  0  0  0  0  0  0  0  0  0
   48.2118    1.8009   -2.9373 C   0  0  0  0  0  0  0  0  0  0  0  0
   49.1625    1.3190   -2.0988 C   0  0  0  0  0  0  0  0  0  0  0  0
   47.1552    0.3889   -1.4550 N   0  0  0  0  0  0  0  0  0  0  0  0
   48.5030    0.4205   -1.2050 C   0  0  0  0  0  0  0  0  0  0  0  0
   49.1790   -0.4264   -0.3254 C   0  0  0  0  0  0  0  0  0  0  0  0
   48.5200   -1.3603    0.4764 C   0  0  0  0  0  0  0  0  0  0  0  0
   49.1919   -2.3043    1.3114 C   0  0  0  0  0  0  0  0  0  0  0  0
   48.2312   -2.9662    2.0027 C   0  0  0  0  0  0  0  0  0  0  0  0
   46.9792   -2.4094    1.5986 C   0  0  0  0  0  0  0  0  0  0  0  0
   47.1618   -1.4511    0.6353 N   0  0  0  0  0  0  0  0  0  0  0  0
   45.7649   -2.7129    2.2159 C   0  0  0  0  0  0  0  0  0  0  0  0
   45.7543   -3.6565    3.2659 C   0  0  0  0  0  0  0  0  0  0  0  0
   45.7405   -4.4744    4.1620 C   0  0  0  0  0  0  0  0  0  0  0  0
   45.7222   -5.4277    5.2060 C   0  0  0  0  0  0  0  0  0  0  0  0
   44.5394   -5.7298    5.8908 C   0  0  0  0  0  0  0  0  0  0  0  0
   44.5735   -6.6715    6.9037 C   0  0  0  0  0  0  0  0  0  0  0  0
   45.6827   -7.3119    7.2643 N   0  0  0  0  0  0  0  0  0  0  0  0
   46.8112   -7.0303    6.6182 C   0  0  0  0  0  0  0  0  0  0  0  0
   46.8845   -6.1052    5.5918 C   0  0  0  0  0  0  0  0  0  0  0  0
   44.5639   -2.0956    1.8604 C   0  0  0  0  0  0  0  0  0  0  0  0
   43.3311   -2.3005    2.5525 C   0  0  0  0  0  0  0  0  0  0  0  0
   42.3836   -1.6080    1.8732 C   0  0  0  0  0  0  0  0  0  0  0  0
   43.0404   -1.0008    0.7590 C   0  0  0  0  0  0  0  0  0  0  0  0
   44.3849   -1.2712    0.7812 N   0  0  0  0  0  0  0  0  0  0  0  0
   41.2680    0.7056   -2.6627 H   0  0  0  0  0  0  0  0  0  0  0  0
   43.1797    1.6488   -4.3282 H   0  0  0  0  0  0  0  0  0  0  0  0
   47.9179    3.9813   -6.5854 H   0  0  0  0  0  0  0  0  0  0  0  0
   47.8521    5.2840   -8.7051 H   0  0  0  0  0  0  0  0  0  0  0  0
   43.8118    4.6677   -9.1410 H   0  0  0  0  0  0  0  0  0  0  0  0
   43.6922    3.3376   -7.0408 H   0  0  0  0  0  0  0  0  0  0  0  0
   48.3230    2.4934   -3.7560 H   0  0  0  0  0  0  0  0  0  0  0  0
   50.2204    1.5269   -2.0880 H   0  0  0  0  0  0  0  0  0  0  0  0
   50.2617   -2.4305    1.3560 H   0  0  0  0  0  0  0  0  0  0  0  0
   48.3456   -3.7471    2.7371 H   0  0  0  0  0  0  0  0  0  0  0  0
   43.6137   -5.2316    5.6290 H   0  0  0  0  0  0  0  0  0  0  0  0
   43.6708   -6.9254    7.4519 H   0  0  0  0  0  0  0  0  0  0  0  0
   47.6973   -7.5710    6.9378 H   0  0  0  0  0  0  0  0  0  0  0  0
   47.8250   -5.9066    5.0923 H   0  0  0  0  0  0  0  0  0  0  0  0
   43.2206   -2.9005    3.4414 H   0  0  0  0  0  0  0  0  0  0  0  0
   41.3292   -1.5242    2.0820 H   0  0  0  0  0  0  0  0  0  0  0  0
  2  3  4  0  0  0  0
  3  4  4  0  0  0  0
  4  5  2  0  0  0  0
  5  6  4  0  0  0  0
  1  7  1  0  0  0  0
  3  7  4  0  0  0  0
  6  7  4  0  0  0  0
  6  8  4  0  0  0  0
  8  9  1  0  0  0  0
  9 10  3  0  0  0  0
 10 11  1  0  0  0  0
 11 12  4  0  0  0  0
 12 13  4  0  0  0  0
 13 14  4  0  0  0  0
 14 15  4  0  0  0  0
 11 16  4  0  0  0  0
 15 16  4  0  0  0  0
  8 17  4  0  0  0  0
 17 18  4  0  0  0  0
 18 19  2  0  0  0  0
  1 20  1  0  0  0  0
 17 20  4  0  0  0  0
 19 21  4  0  0  0  0
 20 21  4  0  0  0  0
 21 22  4  0  0  0  0
 22 23  4  0  0  0  0
 23 24  4  0  0  0  0
 24 25  2  0  0  0  0
 25 26  4  0  0  0  0
  1 27  1  0  0  0  0
 23 27  4  0  0  0  0
 26 27  4  0  0  0  0
 26 28  4  0  0  0  0
 28 29  1  0  0  0  0
 29 30  3  0  0  0  0
 30 31  1  0  0  0  0
 31 32  4  0  0  0  0
 32 33  4  0  0  0  0
 33 34  4  0  0  0  0
 34 35  4  0  0  0  0
 31 36  4  0  0  0  0
 35 36  4  0  0  0  0
 28 37  4  0  0  0  0
 37 38  4  0  0  0  0
 38 39  2  0  0  0  0
  2 40  4  0  0  0  0
 39 40  4  0  0  0  0
  1 41  1  0  0  0  0
 37 41  4  0  0  0  0
 40 41  4  0  0  0  0
  2 42  1  0  0  0  0
  4 43  1  0  0  0  0
  5 44  1  0  0  0  0
 12 45  1  0  0  0  0
 13 46  1  0  0  0  0
 15 47  1  0  0  0  0
 16 48  1  0  0  0  0
 18 49  1  0  0  0  0
 19 50  1  0  0  0  0
 24 51  1  0  0  0  0
 25 52  1  0  0  0  0
 32 53  1  0  0  0  0
 33 54  1  0  0  0  0
 35 55  1  0  0  0  0
 36 56  1  0  0  0  0
 38 57  1  0  0  0  0
 39 58  1  0  0  0  0
 60 61  4  0  0  0  0
 61 62  4  0  0  0  0
 62 63  2  0  0  0  0
 63 64  4  0  0  0  0
 59 65  1  0  0  0  0
 61 65  4  0  0  0  0
 64 65  4  0  0  0  0
 64 66  4  0  0  0  0
 66 67  1  0  0  0  0
 67 68  3  0  0  0  0
 68 69  1  0  0  0  0
 69 70  4  0  0  0  0
 70 71  4  0  0  0  0
 71 72  4  0  0  0  0
 72 73  4  0  0  0  0
 69 74  4  0  0  0  0
 73 74  4  0  0  0  0
 66 75  4  0  0  0  0
 75 76  4  0  0  0  0
 76 77  2  0  0  0  0
 59 78  1  0  0  0  0
 75 78  4  0  0  0  0
 77 79  4  0  0  0  0
 78 79  4  0  0  0  0
 79 80  4  0  0  0  0
 80 81  4  0  0  0  0
 81 82  4  0  0  0  0
 82 83  2  0  0  0  0
 83 84  4  0  0  0  0
 59 85  1  0  0  0  0
 81 85  4  0  0  0  0
 84 85  4  0  0  0  0
 84 86  4  0  0  0  0
 86 87  1  0  0  0  0
 87 88  3  0  0  0  0
 88 89  1  0  0  0  0
 89 90  4  0  0  0  0
 90 91  4  0  0  0  0
 91 92  4  0  0  0  0
 92 93  4  0  0  0  0
 89 94  4  0  0  0  0
 93 94  4  0  0  0  0
 86 95  4  0  0  0  0
 95 96  4  0  0  0  0
 96 97  2  0  0  0  0
 60 98  4  0  0  0  0
 97 98  4  0  0  0  0
 59 99  1  0  0  0  0
 95 99  4  0  0  0  0
 98 99  4  0  0  0  0
 60100  1  0  0  0  0
 62101  1  0  0  0  0
 63102  1  0  0  0  0
 70103  1  0  0  0  0
 71104  1  0  0  0  0
 73105  1  0  0  0  0
 74106  1  0  0  0  0
 76107  1  0  0  0  0
 77108  1  0  0  0  0
 82109  1  0  0  0  0
 83110  1  0  0  0  0
 90111  1  0  0  0  0
 91112  1  0  0  0  0
 93113  1  0  0  0  0
 94114  1  0  0  0  0
 96115  1  0  0  0  0
 97116  1  0  0  0  0
 22117  1  0  0  0  0
117118  3  0  0  0  0
 80120  1  0  0  0  0
119120  3  0  0  0  0
118122  1  0  0  0  0
122123  4  0  0  0  0
123124  4  0  0  0  0
124125  2  0  0  0  0
125126  4  0  0  0  0
121127  1  0  0  0  0
123127  4  0  0  0  0
126127  4  0  0  0  0
126128  4  0  0  0  0
128129  1  0  0  0  0
129130  3  0  0  0  0
130131  1  0  0  0  0
131132  4  0  0  0  0
132133  4  0  0  0  0
133134  4  0  0  0  0
134135  4  0  0  0  0
131136  4  0  0  0  0
135136  4  0  0  0  0
128137  4  0  0  0  0
137138  4  0  0  0  0
138139  2  0  0  0  0
121140  1  0  0  0  0
137140  4  0  0  0  0
139141  4  0  0  0  0
140141  4  0  0  0  0
119142  1  0  0  0  0
141142  4  0  0  0  0
142143  4  0  0  0  0
143144  4  0  0  0  0
144145  2  0  0  0  0
145146  4  0  0  0  0
121147  1  0  0  0  0
143147  4  0  0  0  0
146147  4  0  0  0  0
146148  4  0  0  0  0
148149  1  0  0  0  0
149150  3  0  0  0  0
150151  1  0  0  0  0
151152  4  0  0  0  0
152153  4  0  0  0  0
153154  4  0  0  0  0
154155  4  0  0  0  0
151156  4  0  0  0  0
155156  4  0  0  0  0
148157  4  0  0  0  0
157158  4  0  0  0  0
158159  2  0  0  0  0
122160  4  0  0  0  0
159160  4  0  0  0  0
121161  1  0  0  0  0
157161  4  0  0  0  0
160161  4  0  0  0  0
124162  1  0  0  0  0
125163  1  0  0  0  0
132164  1  0  0  0  0
133165  1  0  0  0  0
135166  1  0  0  0  0
136167  1  0  0  0  0
138168  1  0  0  0  0
139169  1  0  0  0  0
144170  1  0  0  0  0
145171  1  0  0  0  0
152172  1  0  0  0  0
153173  1  0  0  0  0
155174  1  0  0  0  0
156175  1  0  0  0  0
158176  1  0  0  0  0
159177  1  0  0  0  0
M  END
