 xtb: 6.5.1 (b24c23e)
          07302211053D

134153  0     0  0            999 V2000
   15.7399    0.0184    0.0472 Ni  0  0  0  0  0  0  0  0  0  0  0  0
   12.3500    0.1177    0.0844 C   0  0  0  0  0  0  0  0  0  0  0  0
   12.9980   -0.3260    1.2183 C   0  0  0  0  0  0  0  0  0  0  0  0
   12.3188   -0.7742    2.3958 C   0  0  0  0  0  0  0  0  0  0  0  0
   13.2724   -1.0216    3.3236 C   0  0  0  0  0  0  0  0  0  0  0  0
   14.5335   -0.7130    2.7146 C   0  0  0  0  0  0  0  0  0  0  0  0
   14.3571   -0.3259    1.4103 N   0  0  0  0  0  0  0  0  0  0  0  0
   15.7504   -0.7539    3.3830 C   0  0  0  0  0  0  0  0  0  0  0  0
   15.7578   -1.0880    4.8268 C   0  0  0  0  0  0  0  0  0  0  0  0
   15.1012   -0.2637    5.7439 C   0  0  0  0  0  0  0  0  0  0  0  0
   15.1108   -0.5684    7.0952 C   0  0  0  0  0  0  0  0  0  0  0  0
   15.7772   -1.7081    7.5150 C   0  0  0  0  0  0  0  0  0  0  0  0
   15.7999   -2.0956    9.2246 S   0  0  0  0  0  0  0  0  0  0  0  0
   15.5647   -0.9226   10.0134 O   0  0  0  0  0  0  0  0  0  0  0  0
   14.4659   -3.0210    9.2731 O   0  0  0  0  0  0  0  0  0  0  0  0
   16.9253   -2.9230    9.5474 O   0  0  0  0  0  0  0  0  0  0  0  0
   16.4374   -2.5446    6.6297 C   0  0  0  0  0  0  0  0  0  0  0  0
   16.4264   -2.2273    5.2815 C   0  0  0  0  0  0  0  0  0  0  0  0
   16.9619   -0.4929    2.7562 C   0  0  0  0  0  0  0  0  0  0  0  0
   18.2225   -0.4685    3.4345 C   0  0  0  0  0  0  0  0  0  0  0  0
   19.1721   -0.2774    2.4875 C   0  0  0  0  0  0  0  0  0  0  0  0
   17.1356   -0.2723    1.4090 N   0  0  0  0  0  0  0  0  0  0  0  0
   18.4894   -0.1769    1.2370 C   0  0  0  0  0  0  0  0  0  0  0  0
   19.1501   -0.0811    0.0093 C   0  0  0  0  0  0  0  0  0  0  0  0
   18.4686    0.0502   -1.2039 C   0  0  0  0  0  0  0  0  0  0  0  0
   19.1277    0.1075   -2.4696 C   0  0  0  0  0  0  0  0  0  0  0  0
   18.1701    0.3548   -3.3955 C   0  0  0  0  0  0  0  0  0  0  0  0
   16.9292    0.4577   -2.6889 C   0  0  0  0  0  0  0  0  0  0  0  0
   17.1195    0.2257   -1.3459 N   0  0  0  0  0  0  0  0  0  0  0  0
   15.7229    0.7990   -3.2869 C   0  0  0  0  0  0  0  0  0  0  0  0
   15.7178    1.1438   -4.7279 C   0  0  0  0  0  0  0  0  0  0  0  0
   14.9671    0.3880   -5.6318 C   0  0  0  0  0  0  0  0  0  0  0  0
   14.9546    0.7112   -6.9787 C   0  0  0  0  0  0  0  0  0  0  0  0
   15.6986    1.7977   -7.4088 C   0  0  0  0  0  0  0  0  0  0  0  0
   15.6736    2.2232   -9.1104 S   0  0  0  0  0  0  0  0  0  0  0  0
   16.0042    3.6058   -9.3009 O   0  0  0  0  0  0  0  0  0  0  0  0
   16.9504    1.3508   -9.6066 O   0  0  0  0  0  0  0  0  0  0  0  0
   14.4922    1.7054   -9.7317 O   0  0  0  0  0  0  0  0  0  0  0  0
   16.4511    2.5674   -6.5365 C   0  0  0  0  0  0  0  0  0  0  0  0
   16.4589    2.2335   -5.1923 C   0  0  0  0  0  0  0  0  0  0  0  0
   14.5216    0.8325   -2.5900 C   0  0  0  0  0  0  0  0  0  0  0  0
   13.2683    1.2227   -3.1678 C   0  0  0  0  0  0  0  0  0  0  0  0
   12.3218    1.0234   -2.2213 C   0  0  0  0  0  0  0  0  0  0  0  0
   12.9985    0.5265   -1.0622 C   0  0  0  0  0  0  0  0  0  0  0  0
   14.3508    0.4473   -1.2842 N   0  0  0  0  0  0  0  0  0  0  0  0
   11.2669    0.1492    0.0960 H   0  0  0  0  0  0  0  0  0  0  0  0
   11.2490   -0.8783    2.4817 H   0  0  0  0  0  0  0  0  0  0  0  0
   13.1472   -1.3833    4.3313 H   0  0  0  0  0  0  0  0  0  0  0  0
   14.5957    0.6293    5.3954 H   0  0  0  0  0  0  0  0  0  0  0  0
   14.6156    0.0694    7.8165 H   0  0  0  0  0  0  0  0  0  0  0  0
   14.3521   -3.3980   10.1540 H   0  0  0  0  0  0  0  0  0  0  0  0
   16.9530   -3.4245    6.9935 H   0  0  0  0  0  0  0  0  0  0  0  0
   16.9292   -2.8726    4.5707 H   0  0  0  0  0  0  0  0  0  0  0  0
   18.3537   -0.5786    4.4986 H   0  0  0  0  0  0  0  0  0  0  0  0
   20.2410   -0.2097    2.6089 H   0  0  0  0  0  0  0  0  0  0  0  0
   20.1875   -0.0254   -2.6145 H   0  0  0  0  0  0  0  0  0  0  0  0
   18.2836    0.4542   -4.4626 H   0  0  0  0  0  0  0  0  0  0  0  0
   14.4006   -0.4647   -5.2762 H   0  0  0  0  0  0  0  0  0  0  0  0
   14.3743    0.1338   -7.6874 H   0  0  0  0  0  0  0  0  0  0  0  0
   17.3177    1.7328  -10.4132 H   0  0  0  0  0  0  0  0  0  0  0  0
   17.0121    3.4169   -6.9052 H   0  0  0  0  0  0  0  0  0  0  0  0
   17.0300    2.8308   -4.4912 H   0  0  0  0  0  0  0  0  0  0  0  0
   13.1425    1.6023   -4.1687 H   0  0  0  0  0  0  0  0  0  0  0  0
   11.2586    1.1920   -2.2829 H   0  0  0  0  0  0  0  0  0  0  0  0
   31.7333    0.0344   -0.0368 Ni  0  0  0  0  0  0  0  0  0  0  0  0
   35.1232    0.1399   -0.0342 C   0  0  0  0  0  0  0  0  0  0  0  0
   34.4756    0.1465   -1.2519 C   0  0  0  0  0  0  0  0  0  0  0  0
   35.1550    0.1654   -2.5115 C   0  0  0  0  0  0  0  0  0  0  0  0
   34.2016    0.2786   -3.4653 C   0  0  0  0  0  0  0  0  0  0  0  0
   32.9403    0.3402   -2.7856 C   0  0  0  0  0  0  0  0  0  0  0  0
   33.1165    0.2177   -1.4305 N   0  0  0  0  0  0  0  0  0  0  0  0
   31.7234    0.5486   -3.4219 C   0  0  0  0  0  0  0  0  0  0  0  0
   31.7160    0.7713   -4.8871 C   0  0  0  0  0  0  0  0  0  0  0  0
   32.3724    1.8760   -5.4351 C   0  0  0  0  0  0  0  0  0  0  0  0
   32.3623    2.0921   -6.8033 C   0  0  0  0  0  0  0  0  0  0  0  0
   31.6953    1.1882   -7.6142 C   0  0  0  0  0  0  0  0  0  0  0  0
   31.6713    1.4598   -9.3461 S   0  0  0  0  0  0  0  0  0  0  0  0
   31.9061    2.8412   -9.6459 O   0  0  0  0  0  0  0  0  0  0  0  0
   33.0051    0.6179   -9.7341 O   0  0  0  0  0  0  0  0  0  0  0  0
   30.5456    0.8101   -9.9508 O   0  0  0  0  0  0  0  0  0  0  0  0
   31.0355    0.0837   -7.1003 C   0  0  0  0  0  0  0  0  0  0  0  0
   31.0472   -0.1195   -5.7302 C   0  0  0  0  0  0  0  0  0  0  0  0
   30.5118    0.5593   -2.7431 C   0  0  0  0  0  0  0  0  0  0  0  0
   29.2513    0.8321   -3.3648 C   0  0  0  0  0  0  0  0  0  0  0  0
   28.3016    0.6604   -2.4142 C   0  0  0  0  0  0  0  0  0  0  0  0
   30.3380    0.2671   -1.4097 N   0  0  0  0  0  0  0  0  0  0  0  0
   28.9841    0.2922   -1.2148 C   0  0  0  0  0  0  0  0  0  0  0  0
   28.3232   -0.0715   -0.0385 C   0  0  0  0  0  0  0  0  0  0  0  0
   29.0044   -0.3980    1.1374 C   0  0  0  0  0  0  0  0  0  0  0  0
   28.3452   -0.8123    2.3347 C   0  0  0  0  0  0  0  0  0  0  0  0
   29.3026   -0.9248    3.2865 C   0  0  0  0  0  0  0  0  0  0  0  0
   30.5436   -0.5681    2.6680 C   0  0  0  0  0  0  0  0  0  0  0  0
   30.3535   -0.2875    1.3343 N   0  0  0  0  0  0  0  0  0  0  0  0
   31.7497   -0.4711    3.3499 C   0  0  0  0  0  0  0  0  0  0  0  0
   31.7549   -0.6830    4.8164 C   0  0  0  0  0  0  0  0  0  0  0  0
   32.5056   -1.7194    5.3768 C   0  0  0  0  0  0  0  0  0  0  0  0
   32.5187   -1.9165    6.7479 C   0  0  0  0  0  0  0  0  0  0  0  0
   31.7751   -1.0656    7.5492 C   0  0  0  0  0  0  0  0  0  0  0  0
   31.8018   -1.2986    9.2875 S   0  0  0  0  0  0  0  0  0  0  0  0
   31.4727   -0.0842    9.9759 O   0  0  0  0  0  0  0  0  0  0  0  0
   30.5247   -2.2922    9.4274 O   0  0  0  0  0  0  0  0  0  0  0  0
   32.9833   -2.0100    9.6722 O   0  0  0  0  0  0  0  0  0  0  0  0
   31.0225   -0.0281    7.0231 C   0  0  0  0  0  0  0  0  0  0  0  0
   31.0141    0.1580    5.6507 C   0  0  0  0  0  0  0  0  0  0  0  0
   32.9510   -0.1822    2.7148 C   0  0  0  0  0  0  0  0  0  0  0  0
   34.2042   -0.0327    3.3961 C   0  0  0  0  0  0  0  0  0  0  0  0
   35.1509    0.1311    2.4431 C   0  0  0  0  0  0  0  0  0  0  0  0
   34.4745    0.0969    1.1823 C   0  0  0  0  0  0  0  0  0  0  0  0
   33.1221   -0.0584    1.3590 N   0  0  0  0  0  0  0  0  0  0  0  0
   36.2064    0.1731   -0.0329 H   0  0  0  0  0  0  0  0  0  0  0  0
   36.2248    0.1004   -2.6296 H   0  0  0  0  0  0  0  0  0  0  0  0
   34.3271    0.3153   -4.5352 H   0  0  0  0  0  0  0  0  0  0  0  0
   32.8782    2.5771   -4.7816 H   0  0  0  0  0  0  0  0  0  0  0  0
   32.8572    2.9513   -7.2382 H   0  0  0  0  0  0  0  0  0  0  0  0
   33.1182    0.5934  -10.6921 H   0  0  0  0  0  0  0  0  0  0  0  0
   30.5196   -0.5995   -7.7632 H   0  0  0  0  0  0  0  0  0  0  0  0
   30.5446   -0.9818   -5.3079 H   0  0  0  0  0  0  0  0  0  0  0  0
   29.1203    1.1225   -4.3943 H   0  0  0  0  0  0  0  0  0  0  0  0
   27.2327    0.7680   -2.5022 H   0  0  0  0  0  0  0  0  0  0  0  0
   27.2853   -0.9894    2.4201 H   0  0  0  0  0  0  0  0  0  0  0  0
   29.1890   -1.2266    4.3148 H   0  0  0  0  0  0  0  0  0  0  0  0
   33.0718   -2.3805    4.7312 H   0  0  0  0  0  0  0  0  0  0  0  0
   33.0991   -2.7149    7.1930 H   0  0  0  0  0  0  0  0  0  0  0  0
   30.1624   -2.2404   10.3203 H   0  0  0  0  0  0  0  0  0  0  0  0
   30.4617    0.6252    7.6798 H   0  0  0  0  0  0  0  0  0  0  0  0
   30.4429    0.9721    5.2199 H   0  0  0  0  0  0  0  0  0  0  0  0
   34.3297   -0.0490    4.4665 H   0  0  0  0  0  0  0  0  0  0  0  0
   36.2141    0.2650    2.5627 H   0  0  0  0  0  0  0  0  0  0  0  0
   24.3505   -0.1353   -0.0301 C   0  0  0  0  0  0  0  0  0  0  0  0
   23.1227   -0.1382   -0.0256 C   0  0  0  0  0  0  0  0  0  0  0  0
   21.7777   -0.1277   -0.0162 C   0  0  0  0  0  0  0  0  0  0  0  0
   20.5547   -0.1120   -0.0056 C   0  0  0  0  0  0  0  0  0  0  0  0
   25.6955   -0.1235   -0.0345 C   0  0  0  0  0  0  0  0  0  0  0  0
   26.9185   -0.1051   -0.0364 C   0  0  0  0  0  0  0  0  0  0  0  0
  2  3  4  0  0  0  0
  3  4  4  0  0  0  0
  4  5  2  0  0  0  0
  5  6  4  0  0  0  0
  1  7  1  0  0  0  0
  3  7  4  0  0  0  0
  6  7  4  0  0  0  0
  6  8  4  0  0  0  0
  8  9  1  0  0  0  0
  9 10  4  0  0  0  0
 10 11  4  0  0  0  0
 11 12  4  0  0  0  0
 12 13  1  0  0  0  0
 13 14  2  0  0  0  0
 13 15  1  0  0  0  0
 13 16  2  0  0  0  0
 12 17  4  0  0  0  0
  9 18  4  0  0  0  0
 17 18  4  0  0  0  0
  8 19  4  0  0  0  0
 19 20  4  0  0  0  0
 20 21  2  0  0  0  0
  1 22  1  0  0  0  0
 19 22  4  0  0  0  0
 21 23  4  0  0  0  0
 22 23  4  0  0  0  0
 23 24  4  0  0  0  0
 24 25  4  0  0  0  0
 25 26  4  0  0  0  0
 26 27  2  0  0  0  0
 27 28  4  0  0  0  0
  1 29  1  0  0  0  0
 25 29  4  0  0  0  0
 28 29  4  0  0  0  0
 28 30  4  0  0  0  0
 30 31  1  0  0  0  0
 31 32  4  0  0  0  0
 32 33  4  0  0  0  0
 33 34  4  0  0  0  0
 34 35  1  0  0  0  0
 35 36  2  0  0  0  0
 35 37  1  0  0  0  0
 35 38  2  0  0  0  0
 34 39  4  0  0  0  0
 31 40  4  0  0  0  0
 39 40  4  0  0  0  0
 30 41  4  0  0  0  0
 41 42  4  0  0  0  0
 42 43  2  0  0  0  0
  2 44  4  0  0  0  0
 43 44  4  0  0  0  0
  1 45  1  0  0  0  0
 41 45  4  0  0  0  0
 44 45  4  0  0  0  0
  2 46  1  0  0  0  0
  4 47  1  0  0  0  0
  5 48  1  0  0  0  0
 10 49  1  0  0  0  0
 11 50  1  0  0  0  0
 15 51  1  0  0  0  0
 17 52  1  0  0  0  0
 18 53  1  0  0  0  0
 20 54  1  0  0  0  0
 21 55  1  0  0  0  0
 26 56  1  0  0  0  0
 27 57  1  0  0  0  0
 32 58  1  0  0  0  0
 33 59  1  0  0  0  0
 37 60  1  0  0  0  0
 39 61  1  0  0  0  0
 40 62  1  0  0  0  0
 42 63  1  0  0  0  0
 43 64  1  0  0  0  0
 66 67  4  0  0  0  0
 67 68  4  0  0  0  0
 68 69  2  0  0  0  0
 69 70  4  0  0  0  0
 65 71  1  0  0  0  0
 67 71  4  0  0  0  0
 70 71  4  0  0  0  0
 70 72  4  0  0  0  0
 72 73  1  0  0  0  0
 73 74  4  0  0  0  0
 74 75  4  0  0  0  0
 75 76  4  0  0  0  0
 76 77  1  0  0  0  0
 77 78  2  0  0  0  0
 77 79  1  0  0  0  0
 77 80  2  0  0  0  0
 76 81  4  0  0  0  0
 73 82  4  0  0  0  0
 81 82  4  0  0  0  0
 72 83  4  0  0  0  0
 83 84  4  0  0  0  0
 84 85  2  0  0  0  0
 65 86  1  0  0  0  0
 83 86  4  0  0  0  0
 85 87  4  0  0  0  0
 86 87  4  0  0  0  0
 87 88  4  0  0  0  0
 88 89  4  0  0  0  0
 89 90  4  0  0  0  0
 90 91  2  0  0  0  0
 91 92  4  0  0  0  0
 65 93  1  0  0  0  0
 89 93  4  0  0  0  0
 92 93  4  0  0  0  0
 92 94  4  0  0  0  0
 94 95  1  0  0  0  0
 95 96  4  0  0  0  0
 96 97  4  0  0  0  0
 97 98  4  0  0  0  0
 98 99  1  0  0  0  0
 99100  2  0  0  0  0
 99101  1  0  0  0  0
 99102  2  0  0  0  0
 98103  4  0  0  0  0
 95104  4  0  0  0  0
103104  4  0  0  0  0
 94105  4  0  0  0  0
105106  4  0  0  0  0
106107  2  0  0  0  0
 66108  4  0  0  0  0
107108  4  0  0  0  0
 65109  1  0  0  0  0
105109  4  0  0  0  0
108109  4  0  0  0  0
 66110  1  0  0  0  0
 68111  1  0  0  0  0
 69112  1  0  0  0  0
 74113  1  0  0  0  0
 75114  1  0  0  0  0
 79115  1  0  0  0  0
 81116  1  0  0  0  0
 82117  1  0  0  0  0
 84118  1  0  0  0  0
 85119  1  0  0  0  0
 90120  1  0  0  0  0
 91121  1  0  0  0  0
 96122  1  0  0  0  0
 97123  1  0  0  0  0
101124  1  0  0  0  0
103125  1  0  0  0  0
104126  1  0  0  0  0
106127  1  0  0  0  0
107128  1  0  0  0  0
129130  3  0  0  0  0
130131  4  0  0  0  0
 24132  4  0  0  0  0
131132  3  0  0  0  0
129133  4  0  0  0  0
 88134  4  0  0  0  0
133134  3  0  0  0  0
M  END
