 xtb: 6.5.1 (b24c23e)
          07302204253D

123146  0     0  0            999 V2000
   11.0056   -0.0170   -0.0151 Cu  0  0  0  0  0  0  0  0  0  0  0  0
    7.5814   -0.0485   -0.0478 C   0  0  0  0  0  0  0  0  0  0  0  0
    8.2269   -0.9152   -0.9181 C   0  0  0  0  0  0  0  0  0  0  0  0
    7.5700   -1.8171   -1.8243 C   0  0  0  0  0  0  0  0  0  0  0  0
    8.5426   -2.4843   -2.4939 C   0  0  0  0  0  0  0  0  0  0  0  0
    9.8014   -1.9955   -2.0022 C   0  0  0  0  0  0  0  0  0  0  0  0
    9.5791   -1.0455   -1.0483 N   0  0  0  0  0  0  0  0  0  0  0  0
   11.0480   -2.4261   -2.4338 C   0  0  0  0  0  0  0  0  0  0  0  0
   12.2777   -1.9742   -1.9795 C   0  0  0  0  0  0  0  0  0  0  0  0
   13.5495   -2.4435   -2.4501 C   0  0  0  0  0  0  0  0  0  0  0  0
   14.5012   -1.7604   -1.7647 C   0  0  0  0  0  0  0  0  0  0  0  0
   12.4733   -1.0176   -1.0194 N   0  0  0  0  0  0  0  0  0  0  0  0
   13.8166   -0.8706   -0.8718 C   0  0  0  0  0  0  0  0  0  0  0  0
   14.4528    0.0155    0.0169 C   0  0  0  0  0  0  0  0  0  0  0  0
   13.7843    0.8888    0.8941 C   0  0  0  0  0  0  0  0  0  0  0  0
   14.4352    1.7906    1.8000 C   0  0  0  0  0  0  0  0  0  0  0  0
   13.4581    2.4550    2.4680 C   0  0  0  0  0  0  0  0  0  0  0  0
   12.2044    1.9625    1.9732 C   0  0  0  0  0  0  0  0  0  0  0  0
   12.4358    1.0105    1.0167 N   0  0  0  0  0  0  0  0  0  0  0  0
   10.9579    2.3913    2.4039 C   0  0  0  0  0  0  0  0  0  0  0  0
    9.7280    1.9382    1.9484 C   0  0  0  0  0  0  0  0  0  0  0  0
    8.4512    2.4039    2.4157 C   0  0  0  0  0  0  0  0  0  0  0  0
    7.5040    1.7193    1.7277 C   0  0  0  0  0  0  0  0  0  0  0  0
    8.1944    0.8297    0.8345 C   0  0  0  0  0  0  0  0  0  0  0  0
    9.5413    0.9845    0.9906 N   0  0  0  0  0  0  0  0  0  0  0  0
    6.4964   -0.0583   -0.0581 H   0  0  0  0  0  0  0  0  0  0  0  0
    6.5002   -1.9149   -1.9232 H   0  0  0  0  0  0  0  0  0  0  0  0
    8.4343   -3.2415   -3.2546 H   0  0  0  0  0  0  0  0  0  0  0  0
   11.0626   -3.1919   -3.2026 H   0  0  0  0  0  0  0  0  0  0  0  0
   13.6827   -3.1992   -3.2082 H   0  0  0  0  0  0  0  0  0  0  0  0
   15.5734   -1.8426   -1.8470 H   0  0  0  0  0  0  0  0  0  0  0  0
   15.5040    1.8925    1.9022 H   0  0  0  0  0  0  0  0  0  0  0  0
   13.5629    3.2122    3.2290 H   0  0  0  0  0  0  0  0  0  0  0  0
   10.9436    3.1569    3.1730 H   0  0  0  0  0  0  0  0  0  0  0  0
    8.3145    3.1591    3.1740 H   0  0  0  0  0  0  0  0  0  0  0  0
    6.4308    1.7977    1.8060 H   0  0  0  0  0  0  0  0  0  0  0  0
   48.2957    0.0031   -0.0085 Cu  0  0  0  0  0  0  0  0  0  0  0  0
   51.7198    0.0546   -0.0076 C   0  0  0  0  0  0  0  0  0  0  0  0
   51.0721    1.2802   -0.0689 C   0  0  0  0  0  0  0  0  0  0  0  0
   51.7267    2.5584   -0.1312 C   0  0  0  0  0  0  0  0  0  0  0  0
   50.7524    3.5007   -0.1777 C   0  0  0  0  0  0  0  0  0  0  0  0
   49.4948    2.8059   -0.1443 C   0  0  0  0  0  0  0  0  0  0  0  0
   49.7195    1.4617   -0.0786 N   0  0  0  0  0  0  0  0  0  0  0  0
   48.2472    3.4127   -0.1741 C   0  0  0  0  0  0  0  0  0  0  0  0
   47.0186    2.7704   -0.1434 C   0  0  0  0  0  0  0  0  0  0  0  0
   45.7456    3.4320   -0.1765 C   0  0  0  0  0  0  0  0  0  0  0  0
   44.7956    2.4638   -0.1306 C   0  0  0  0  0  0  0  0  0  0  0  0
   46.8255    1.4165   -0.0779 N   0  0  0  0  0  0  0  0  0  0  0  0
   45.4824    1.2058   -0.0692 C   0  0  0  0  0  0  0  0  0  0  0  0
   44.8487   -0.0488   -0.0117 C   0  0  0  0  0  0  0  0  0  0  0  0
   45.5193   -1.2839    0.0473 C   0  0  0  0  0  0  0  0  0  0  0  0
   44.8706   -2.5619    0.1077 C   0  0  0  0  0  0  0  0  0  0  0  0
   45.8494   -3.5010    0.1565 C   0  0  0  0  0  0  0  0  0  0  0  0
   47.1019   -2.8013    0.1259 C   0  0  0  0  0  0  0  0  0  0  0  0
   46.8682   -1.4539    0.0591 N   0  0  0  0  0  0  0  0  0  0  0  0
   48.3494   -3.4061    0.1594 C   0  0  0  0  0  0  0  0  0  0  0  0
   49.5781   -2.7621    0.1303 C   0  0  0  0  0  0  0  0  0  0  0  0
   50.8561   -3.4187    0.1650 C   0  0  0  0  0  0  0  0  0  0  0  0
   51.8016   -2.4477    0.1177 C   0  0  0  0  0  0  0  0  0  0  0  0
   51.1090   -1.1898    0.0540 C   0  0  0  0  0  0  0  0  0  0  0  0
   49.7625   -1.4118    0.0634 N   0  0  0  0  0  0  0  0  0  0  0  0
   52.8048    0.0708   -0.0076 H   0  0  0  0  0  0  0  0  0  0  0  0
   52.7963    2.6992   -0.1376 H   0  0  0  0  0  0  0  0  0  0  0  0
   50.8588    4.5730   -0.2300 H   0  0  0  0  0  0  0  0  0  0  0  0
   48.2306    4.4965   -0.2268 H   0  0  0  0  0  0  0  0  0  0  0  0
   45.6106    4.5009   -0.2285 H   0  0  0  0  0  0  0  0  0  0  0  0
   43.7233    2.5780   -0.1375 H   0  0  0  0  0  0  0  0  0  0  0  0
   43.8021   -2.7081    0.1119 H   0  0  0  0  0  0  0  0  0  0  0  0
   45.7465   -4.5735    0.2089 H   0  0  0  0  0  0  0  0  0  0  0  0
   48.3655   -4.4899    0.2132 H   0  0  0  0  0  0  0  0  0  0  0  0
   50.9947   -4.4873    0.2187 H   0  0  0  0  0  0  0  0  0  0  0  0
   52.8750   -2.5563    0.1245 H   0  0  0  0  0  0  0  0  0  0  0  0
   15.8580    0.0280    0.0266 C   0  0  0  0  0  0  0  0  0  0  0  0
   17.0825    0.0367    0.0314 C   0  0  0  0  0  0  0  0  0  0  0  0
   18.4255    0.0388    0.0307 C   0  0  0  0  0  0  0  0  0  0  0  0
   19.6561    0.0333    0.0358 C   0  0  0  0  0  0  0  0  0  0  0  0
   20.9941    0.0254    0.0271 C   0  0  0  0  0  0  0  0  0  0  0  0
   22.2247    0.0160    0.0202 C   0  0  0  0  0  0  0  0  0  0  0  0
   23.5673    0.0075    0.0098 C   0  0  0  0  0  0  0  0  0  0  0  0
   24.7919   -0.0021    0.0006 C   0  0  0  0  0  0  0  0  0  0  0  0
   34.5087   -0.0589   -0.0276 C   0  0  0  0  0  0  0  0  0  0  0  0
   35.7332   -0.0682   -0.0266 C   0  0  0  0  0  0  0  0  0  0  0  0
   37.0762   -0.0776   -0.0232 C   0  0  0  0  0  0  0  0  0  0  0  0
   38.3067   -0.0834   -0.0218 C   0  0  0  0  0  0  0  0  0  0  0  0
   39.6451   -0.0860   -0.0168 C   0  0  0  0  0  0  0  0  0  0  0  0
   40.8755   -0.0860   -0.0153 C   0  0  0  0  0  0  0  0  0  0  0  0
   42.2188   -0.0785   -0.0122 C   0  0  0  0  0  0  0  0  0  0  0  0
   43.4430   -0.0680   -0.0134 C   0  0  0  0  0  0  0  0  0  0  0  0
   29.6501   -0.0267   -0.0195 Cu  0  0  0  0  0  0  0  0  0  0  0  0
   26.1964   -0.0107   -0.0053 C   0  0  0  0  0  0  0  0  0  0  0  0
   26.8573    0.9180    0.8205 C   0  0  0  0  0  0  0  0  0  0  0  0
   26.1984    1.8705    1.6667 C   0  0  0  0  0  0  0  0  0  0  0  0
   27.1701    2.5800    2.2956 C   0  0  0  0  0  0  0  0  0  0  0  0
   28.4274    2.0638    1.8362 C   0  0  0  0  0  0  0  0  0  0  0  0
   28.2041    1.0537    0.9399 N   0  0  0  0  0  0  0  0  0  0  0  0
   29.6712    2.5234    2.2428 C   0  0  0  0  0  0  0  0  0  0  0  0
   30.9074    2.0527    1.8255 C   0  0  0  0  0  0  0  0  0  0  0  0
   32.1731    2.5573    2.2746 C   0  0  0  0  0  0  0  0  0  0  0  0
   33.1330    1.8375    1.6393 C   0  0  0  0  0  0  0  0  0  0  0  0
   31.1139    1.0399    0.9284 N   0  0  0  0  0  0  0  0  0  0  0  0
   32.4585    0.8904    0.7993 C   0  0  0  0  0  0  0  0  0  0  0  0
   33.1036   -0.0483   -0.0272 C   0  0  0  0  0  0  0  0  0  0  0  0
   32.4431   -0.9768   -0.8531 C   0  0  0  0  0  0  0  0  0  0  0  0
   33.1020   -1.9298   -1.6989 C   0  0  0  0  0  0  0  0  0  0  0  0
   32.1304   -2.6353   -2.3323 C   0  0  0  0  0  0  0  0  0  0  0  0
   30.8730   -2.1166   -1.8756 C   0  0  0  0  0  0  0  0  0  0  0  0
   31.0963   -1.1089   -0.9768 N   0  0  0  0  0  0  0  0  0  0  0  0
   29.6291   -2.5726   -2.2864 C   0  0  0  0  0  0  0  0  0  0  0  0
   28.3929   -2.1018   -1.8694 C   0  0  0  0  0  0  0  0  0  0  0  0
   27.1272   -2.6055   -2.3195 C   0  0  0  0  0  0  0  0  0  0  0  0
   26.1672   -1.8888   -1.6807 C   0  0  0  0  0  0  0  0  0  0  0  0
   26.8417   -0.9442   -0.8379 C   0  0  0  0  0  0  0  0  0  0  0  0
   28.1862   -1.0917   -0.9692 N   0  0  0  0  0  0  0  0  0  0  0  0
   25.1289    1.9735    1.7591 H   0  0  0  0  0  0  0  0  0  0  0  0
   27.0588    3.3823    3.0080 H   0  0  0  0  0  0  0  0  0  0  0  0
   29.6779    3.3355    2.9630 H   0  0  0  0  0  0  0  0  0  0  0  0
   32.2975    3.3593    2.9851 H   0  0  0  0  0  0  0  0  0  0  0  0
   34.2041    1.9301    1.7236 H   0  0  0  0  0  0  0  0  0  0  0  0
   34.1716   -2.0352   -1.7884 H   0  0  0  0  0  0  0  0  0  0  0  0
   32.2417   -3.4363   -3.0460 H   0  0  0  0  0  0  0  0  0  0  0  0
   29.6225   -3.3828   -3.0087 H   0  0  0  0  0  0  0  0  0  0  0  0
   27.0028   -3.4052   -3.0326 H   0  0  0  0  0  0  0  0  0  0  0  0
   25.0961   -1.9820   -1.7642 H   0  0  0  0  0  0  0  0  0  0  0  0
  2  3  4  0  0  0  0
  3  4  1  0  0  0  0
  4  5  2  0  0  0  0
  5  6  1  0  0  0  0
  1  7  1  0  0  0  0
  3  7  4  0  0  0  0
  6  7  4  0  0  0  0
  6  8  4  0  0  0  0
  8  9  4  0  0  0  0
  9 10  4  0  0  0  0
 10 11  2  0  0  0  0
  1 12  1  0  0  0  0
  9 12  4  0  0  0  0
 11 13  4  0  0  0  0
 12 13  4  0  0  0  0
 13 14  4  0  0  0  0
 14 15  4  0  0  0  0
 15 16  4  0  0  0  0
 16 17  2  0  0  0  0
 17 18  4  0  0  0  0
  1 19  1  0  0  0  0
 15 19  4  0  0  0  0
 18 19  4  0  0  0  0
 18 20  4  0  0  0  0
 20 21  4  0  0  0  0
 21 22  1  0  0  0  0
 22 23  2  0  0  0  0
  2 24  4  0  0  0  0
 23 24  1  0  0  0  0
  1 25  1  0  0  0  0
 21 25  4  0  0  0  0
 24 25  4  0  0  0  0
  2 26  1  0  0  0  0
  4 27  1  0  0  0  0
  5 28  1  0  0  0  0
  8 29  1  0  0  0  0
 10 30  1  0  0  0  0
 11 31  1  0  0  0  0
 16 32  1  0  0  0  0
 17 33  1  0  0  0  0
 20 34  1  0  0  0  0
 22 35  1  0  0  0  0
 23 36  1  0  0  0  0
 38 39  4  0  0  0  0
 39 40  1  0  0  0  0
 40 41  2  0  0  0  0
 41 42  1  0  0  0  0
 37 43  1  0  0  0  0
 39 43  4  0  0  0  0
 42 43  4  0  0  0  0
 42 44  4  0  0  0  0
 44 45  4  0  0  0  0
 45 46  4  0  0  0  0
 46 47  2  0  0  0  0
 37 48  1  0  0  0  0
 45 48  4  0  0  0  0
 47 49  4  0  0  0  0
 48 49  4  0  0  0  0
 49 50  4  0  0  0  0
 50 51  4  0  0  0  0
 51 52  4  0  0  0  0
 52 53  2  0  0  0  0
 53 54  4  0  0  0  0
 37 55  1  0  0  0  0
 51 55  4  0  0  0  0
 54 55  4  0  0  0  0
 54 56  4  0  0  0  0
 56 57  4  0  0  0  0
 57 58  1  0  0  0  0
 58 59  2  0  0  0  0
 38 60  4  0  0  0  0
 59 60  1  0  0  0  0
 37 61  1  0  0  0  0
 57 61  4  0  0  0  0
 60 61  4  0  0  0  0
 38 62  1  0  0  0  0
 40 63  1  0  0  0  0
 41 64  1  0  0  0  0
 44 65  1  0  0  0  0
 46 66  1  0  0  0  0
 47 67  1  0  0  0  0
 52 68  1  0  0  0  0
 53 69  1  0  0  0  0
 56 70  1  0  0  0  0
 58 71  1  0  0  0  0
 59 72  1  0  0  0  0
 14 73  4  0  0  0  0
 73 74  3  0  0  0  0
 74 75  4  0  0  0  0
 75 76  3  0  0  0  0
 76 77  4  0  0  0  0
 77 78  3  0  0  0  0
 78 79  4  0  0  0  0
 79 80  3  0  0  0  0
 81 82  3  0  0  0  0
 82 83  4  0  0  0  0
 83 84  3  0  0  0  0
 84 85  4  0  0  0  0
 85 86  3  0  0  0  0
 86 87  4  0  0  0  0
 50 88  4  0  0  0  0
 87 88  3  0  0  0  0
 80 90  4  0  0  0  0
 90 91  4  0  0  0  0
 91 92  4  0  0  0  0
 92 93  2  0  0  0  0
 93 94  4  0  0  0  0
 89 95  1  0  0  0  0
 91 95  4  0  0  0  0
 94 95  4  0  0  0  0
 94 96  4  0  0  0  0
 96 97  4  0  0  0  0
 97 98  4  0  0  0  0
 98 99  2  0  0  0  0
 89100  1  0  0  0  0
 97100  4  0  0  0  0
 99101  4  0  0  0  0
100101  4  0  0  0  0
 81102  4  0  0  0  0
101102  4  0  0  0  0
102103  4  0  0  0  0
103104  4  0  0  0  0
104105  2  0  0  0  0
105106  4  0  0  0  0
 89107  1  0  0  0  0
103107  4  0  0  0  0
106107  4  0  0  0  0
106108  4  0  0  0  0
108109  4  0  0  0  0
109110  4  0  0  0  0
110111  2  0  0  0  0
 90112  4  0  0  0  0
111112  4  0  0  0  0
 89113  1  0  0  0  0
109113  4  0  0  0  0
112113  4  0  0  0  0
 92114  1  0  0  0  0
 93115  1  0  0  0  0
 96116  1  0  0  0  0
 98117  1  0  0  0  0
 99118  1  0  0  0  0
104119  1  0  0  0  0
105120  1  0  0  0  0
108121  1  0  0  0  0
110122  1  0  0  0  0
111123  1  0  0  0  0
M  END
