138

Ni 16.800051 1.959062 1.631056
C 13.048960 0.065578 -0.028584
C 13.698592 0.918780 0.768524
C 13.033885 1.837419 1.684864
C 13.964091 2.550577 2.292129
C 15.276322 2.129588 1.782014
N 15.114524 1.085411 0.821123
C 16.461735 2.659877 2.148593
C 16.495597 3.773360 3.124485
C 16.007796 5.040466 2.773815
C 16.055995 6.092319 3.692523
C 16.597051 5.897868 4.973304
N 16.633507 7.001190 5.897299
C 17.174919 6.903644 7.248820
C 17.092472 4.625589 5.318792
C 17.042871 3.573820 4.399408
C 17.760873 2.181357 1.606981
C 19.037676 2.875440 1.814797
C 19.982129 2.165704 1.231527
N 17.917032 1.091719 0.919474
C 19.315139 1.011185 0.642278
C 19.921921 -0.000187 0.000052
C 19.171301 -1.133663 -0.584441
C 19.713034 -2.301089 -0.907830
C 18.680968 -3.092382 -1.549249
C 17.578008 -2.353308 -1.579544
N 17.797675 -1.080303 -0.969864
C 16.307454 -2.768984 -2.227165
C 16.346007 -3.870011 -3.220377
C 17.091723 -3.726635 -4.399040
C 17.148755 -4.767435 -5.330389
C 16.462867 -5.974198 -5.093170
N 16.501608 -7.064546 -6.032354
C 17.238333 -7.018899 -7.291072
C 15.725298 -6.115302 -3.907198
C 15.669593 -5.074577 -2.976352
C 15.138690 -2.166714 -1.934788
C 13.838314 -2.463484 -2.533339
C 12.966016 -1.687229 -1.919773
C 13.700769 -0.886525 -0.941858
N 14.967650 -1.157543 -0.941750
H 11.965361 0.068556 -0.010115
H 11.968445 1.926863 1.853948
H 13.764726 3.309583 3.037211
H 15.592067 5.212513 1.788498
H 15.672212 7.062879 3.404235
H 16.253927 7.926932 5.594085
H 18.247233 6.618844 7.207045
H 16.604917 6.149474 7.831080
H 17.088947 7.885280 7.760892
H 17.518984 4.437693 6.294552
H 17.429969 2.602046 4.680915
H 19.197532 3.804343 2.346297
H 21.034304 2.416654 1.212221
H 20.739762 -2.603846 -0.751595
H 18.800287 -4.089948 -1.951760
H 17.626785 -2.805908 -4.597639
H 17.730109 -4.622414 -6.230570
H 15.976591 -7.941070 -5.810856
H 16.849962 -6.195795 -7.926977
H 17.111798 -7.977807 -7.836701
H 18.319601 -6.865403 -7.091069
H 15.194037 -7.036154 -3.701769
H 15.102515 -5.207995 -2.063168
H 13.607999 -3.169111 -3.320615
H 11.902788 -1.655496 -2.118462
Ni 31.845167 -2.019398 -1.556104
C 35.596258 0.013409 -0.070377
C 34.946625 -0.950660 -0.729092
C 35.611332 -2.045367 -1.425650
C 34.681127 -2.793610 -1.989120
C 33.368896 -2.203927 -1.689581
N 33.530694 -1.038351 -0.880231
C 32.183483 -2.677382 -2.127105
C 32.149620 -3.872720 -3.000819
C 32.637421 -3.806982 -4.313909
C 32.589223 -4.933067 -5.139955
C 32.048166 -6.140558 -4.670724
N 32.011711 -7.283031 -5.545845
C 31.470298 -8.580703 -5.155749
C 31.552745 -6.200110 -3.353716
C 31.602346 -5.073384 -2.527900
C 30.884344 -2.044408 -1.778296
C 29.607541 -2.398665 -2.410309
C 28.663088 -1.674585 -1.844944
N 30.728185 -1.135709 -0.864927
C 29.330078 -0.847620 -0.846818
C 28.723296 -0.000187 0.000052
C 29.473916 0.817545 0.978680
C 28.932183 1.387874 2.047412
C 29.964249 2.186497 2.679681
C 31.067209 2.054796 1.951805
N 30.847542 1.182038 0.842507
C 32.337763 2.777513 2.216155
C 32.299211 3.987036 3.073934
C 31.553494 5.106013 2.676828
C 31.496462 6.242023 3.489330
C 32.182350 6.273835 4.718776
N 32.143609 7.428301 5.577922
C 31.406884 8.646730 5.258724
C 32.919920 5.147229 5.115259
C 32.975624 4.011726 4.302720
C 33.506527 2.360766 1.692193
C 34.806903 3.009649 1.851209
C 35.679202 2.241490 1.227538
C 34.944448 1.112425 0.659509
N 33.677568 1.171455 0.924020
H 36.679857 -0.005265 -0.069254
H 36.676772 -2.229893 -1.476046
H 34.880491 -3.686354 -2.567261
H 33.053150 -2.882948 -4.696807
H 32.973006 -4.863500 -6.150034
H 32.391290 -7.189121 -6.515443
H 30.397985 -8.477791 -4.886927
H 32.040300 -8.984373 -4.292703
H 31.556270 -9.294628 -6.001998
H 31.126233 -7.111359 -2.957438
H 31.215248 -5.136067 -1.518117
H 29.447685 -3.120044 -3.200856
H 27.610914 -1.710501 -2.094059
H 27.905455 1.301465 2.376964
H 29.844931 2.796977 3.565382
H 31.018432 5.098925 1.734953
H 30.915109 7.088870 3.151384
H 32.668626 7.403398 6.481656
H 31.795255 9.087712 4.316698
H 31.533419 9.388444 6.075469
H 30.325616 8.418053 5.152566
H 33.451180 5.147679 6.058746
H 33.542703 3.149659 4.632180
H 35.037219 3.931922 2.368050
H 36.742429 2.428467 1.153216
C 24.926598 0.001313 0.008432
C 23.717658 -0.012142 -0.000015
C 22.296129 -0.003323 -0.011998
C 21.084460 0.004116 -0.001135
C 26.343202 -0.005362 0.008965
C 27.563898 0.004116 -0.001135
