 xtb: 6.5.1 (b24c23e)
          07302203063D

138157  0     0  0            999 V2000
   16.3301    0.0235    0.0060 Ni  0  0  0  0  0  0  0  0  0  0  0  0
   12.9446    0.1028   -0.0796 C   0  0  0  0  0  0  0  0  0  0  0  0
   13.5898    0.8905    0.8519 C   0  0  0  0  0  0  0  0  0  0  0  0
   12.9124    1.7023    1.8154 C   0  0  0  0  0  0  0  0  0  0  0  0
   13.8658    2.4143    2.4626 C   0  0  0  0  0  0  0  0  0  0  0  0
   15.1241    2.0495    1.8815 C   0  0  0  0  0  0  0  0  0  0  0  0
   14.9478    1.0774    0.9287 N   0  0  0  0  0  0  0  0  0  0  0  0
   16.3337    2.6616    2.1917 C   0  0  0  0  0  0  0  0  0  0  0  0
   16.3399    3.8009    3.1357 C   0  0  0  0  0  0  0  0  0  0  0  0
   15.5839    4.9482    2.8783 C   0  0  0  0  0  0  0  0  0  0  0  0
   15.5989    6.0161    3.7551 C   0  0  0  0  0  0  0  0  0  0  0  0
   16.3641    5.9647    4.9271 C   0  0  0  0  0  0  0  0  0  0  0  0
   16.3888    7.0811    5.7484 N   0  0  0  0  0  0  0  0  0  0  0  0
   16.7637    6.9422    7.1489 C   0  0  0  0  0  0  0  0  0  0  0  0
   17.1239    4.8206    5.1883 C   0  0  0  0  0  0  0  0  0  0  0  0
   17.1087    3.7584    4.3006 C   0  0  0  0  0  0  0  0  0  0  0  0
   17.5393    2.2445    1.6397 C   0  0  0  0  0  0  0  0  0  0  0  0
   18.7927    2.8962    1.8697 C   0  0  0  0  0  0  0  0  0  0  0  0
   19.7450    2.1371    1.2746 C   0  0  0  0  0  0  0  0  0  0  0  0
   17.7188    1.1233    0.8610 N   0  0  0  0  0  0  0  0  0  0  0  0
   19.0709    1.0313    0.6740 C   0  0  0  0  0  0  0  0  0  0  0  0
   19.7359   -0.0401    0.0700 C   0  0  0  0  0  0  0  0  0  0  0  0
   19.0552   -1.0914   -0.5515 C   0  0  0  0  0  0  0  0  0  0  0  0
   19.7092   -2.2271   -1.1174 C   0  0  0  0  0  0  0  0  0  0  0  0
   18.7513   -2.9577   -1.7388 C   0  0  0  0  0  0  0  0  0  0  0  0
   17.5159   -2.2567   -1.5628 C   0  0  0  0  0  0  0  0  0  0  0  0
   17.7084   -1.1358   -0.7865 N   0  0  0  0  0  0  0  0  0  0  0  0
   16.3195   -2.6268   -2.1654 C   0  0  0  0  0  0  0  0  0  0  0  0
   16.3180   -3.7706   -3.1040 C   0  0  0  0  0  0  0  0  0  0  0  0
   17.1373   -3.7667   -4.2346 C   0  0  0  0  0  0  0  0  0  0  0  0
   17.1413   -4.8306   -5.1203 C   0  0  0  0  0  0  0  0  0  0  0  0
   16.3182   -5.9372   -4.8917 C   0  0  0  0  0  0  0  0  0  0  0  0
   16.3237   -7.0540   -5.7133 N   0  0  0  0  0  0  0  0  0  0  0  0
   16.7576   -6.9301   -7.0983 C   0  0  0  0  0  0  0  0  0  0  0  0
   15.5034   -5.9513   -3.7527 C   0  0  0  0  0  0  0  0  0  0  0  0
   15.5002   -4.8816   -2.8779 C   0  0  0  0  0  0  0  0  0  0  0  0
   15.1256   -1.9576   -1.9183 C   0  0  0  0  0  0  0  0  0  0  0  0
   13.8827   -2.2659   -2.5620 C   0  0  0  0  0  0  0  0  0  0  0  0
   12.9330   -1.5031   -1.9696 C   0  0  0  0  0  0  0  0  0  0  0  0
   13.5981   -0.7185   -0.9756 C   0  0  0  0  0  0  0  0  0  0  0  0
   14.9476   -0.9713   -0.9807 N   0  0  0  0  0  0  0  0  0  0  0  0
   11.8615    0.1293   -0.1077 H   0  0  0  0  0  0  0  0  0  0  0  0
   11.8443    1.7117    1.9643 H   0  0  0  0  0  0  0  0  0  0  0  0
   13.7400    3.1226    3.2654 H   0  0  0  0  0  0  0  0  0  0  0  0
   14.9972    5.0087    1.9682 H   0  0  0  0  0  0  0  0  0  0  0  0
   15.0175    6.9057    3.5367 H   0  0  0  0  0  0  0  0  0  0  0  0
   15.5838    7.6821    5.6204 H   0  0  0  0  0  0  0  0  0  0  0  0
   17.8221    6.6909    7.2293 H   0  0  0  0  0  0  0  0  0  0  0  0
   16.1703    6.1694    7.6509 H   0  0  0  0  0  0  0  0  0  0  0  0
   16.5950    7.9010    7.6392 H   0  0  0  0  0  0  0  0  0  0  0  0
   17.7305    4.7530    6.0829 H   0  0  0  0  0  0  0  0  0  0  0  0
   17.6889    2.8696    4.5237 H   0  0  0  0  0  0  0  0  0  0  0  0
   18.9184    3.8198    2.4107 H   0  0  0  0  0  0  0  0  0  0  0  0
   20.8103    2.2982    1.2382 H   0  0  0  0  0  0  0  0  0  0  0  0
   20.7658   -2.4269   -1.0404 H   0  0  0  0  0  0  0  0  0  0  0  0
   18.8619   -3.8915   -2.2655 H   0  0  0  0  0  0  0  0  0  0  0  0
   17.7667   -2.9059   -4.4332 H   0  0  0  0  0  0  0  0  0  0  0  0
   17.7881   -4.7935   -5.9882 H   0  0  0  0  0  0  0  0  0  0  0  0
   15.4858   -7.6150   -5.6189 H   0  0  0  0  0  0  0  0  0  0  0  0
   16.2290   -6.1215   -7.6159 H   0  0  0  0  0  0  0  0  0  0  0  0
   16.5519   -7.8749   -7.6013 H   0  0  0  0  0  0  0  0  0  0  0  0
   17.8311   -6.7402   -7.1380 H   0  0  0  0  0  0  0  0  0  0  0  0
   14.8728   -6.8126   -3.5590 H   0  0  0  0  0  0  0  0  0  0  0  0
   14.8727   -4.9122   -1.9939 H   0  0  0  0  0  0  0  0  0  0  0  0
   13.7645   -2.9737   -3.3665 H   0  0  0  0  0  0  0  0  0  0  0  0
   11.8748   -1.4618   -2.1743 H   0  0  0  0  0  0  0  0  0  0  0  0
   32.3152   -0.0112   -0.0221 Ni  0  0  0  0  0  0  0  0  0  0  0  0
   35.7007    0.0554   -0.1176 C   0  0  0  0  0  0  0  0  0  0  0  0
   35.0557   -1.0254   -0.6835 C   0  0  0  0  0  0  0  0  0  0  0  0
   35.7332   -2.1424   -1.2658 C   0  0  0  0  0  0  0  0  0  0  0  0
   34.7800   -2.9292   -1.8199 C   0  0  0  0  0  0  0  0  0  0  0  0
   33.5215   -2.2829   -1.5905 C   0  0  0  0  0  0  0  0  0  0  0  0
   33.6977   -1.1411   -0.8494 N   0  0  0  0  0  0  0  0  0  0  0  0
   32.3119   -2.7197   -2.1197 C   0  0  0  0  0  0  0  0  0  0  0  0
   32.3058   -3.8896   -3.0254 C   0  0  0  0  0  0  0  0  0  0  0  0
   33.0611   -3.8887   -4.2016 C   0  0  0  0  0  0  0  0  0  0  0  0
   33.0458   -4.9775   -5.0524 C   0  0  0  0  0  0  0  0  0  0  0  0
   32.2811   -6.1101   -4.7459 C   0  0  0  0  0  0  0  0  0  0  0  0
   32.2558   -7.1553   -5.6562 N   0  0  0  0  0  0  0  0  0  0  0  0
   31.8820   -8.4919   -5.2145 C   0  0  0  0  0  0  0  0  0  0  0  0
   31.5221   -6.1155   -3.5718 C   0  0  0  0  0  0  0  0  0  0  0  0
   31.5376   -5.0174   -2.7291 C   0  0  0  0  0  0  0  0  0  0  0  0
   31.1061   -2.0906   -1.8323 C   0  0  0  0  0  0  0  0  0  0  0  0
   29.8526   -2.4581   -2.4174 C   0  0  0  0  0  0  0  0  0  0  0  0
   28.9003   -1.7118   -1.8063 C   0  0  0  0  0  0  0  0  0  0  0  0
   30.9266   -1.0858   -0.9083 N   0  0  0  0  0  0  0  0  0  0  0  0
   29.5744   -0.8837   -0.8589 C   0  0  0  0  0  0  0  0  0  0  0  0
   28.9093   -0.0604    0.0547 C   0  0  0  0  0  0  0  0  0  0  0  0
   29.5900    0.7755    0.9451 C   0  0  0  0  0  0  0  0  0  0  0  0
   28.9360    1.5753    1.9302 C   0  0  0  0  0  0  0  0  0  0  0  0
   29.8939    2.3411    2.5077 C   0  0  0  0  0  0  0  0  0  0  0  0
   31.1292    2.0167    1.8616 C   0  0  0  0  0  0  0  0  0  0  0  0
   30.9367    1.0148    0.9368 N   0  0  0  0  0  0  0  0  0  0  0  0
   32.3255    2.6860    2.0907 C   0  0  0  0  0  0  0  0  0  0  0  0
   32.3268    3.8515    3.0023 C   0  0  0  0  0  0  0  0  0  0  0  0
   31.5077    4.9541    2.7515 C   0  0  0  0  0  0  0  0  0  0  0  0
   31.5035    6.0505    3.5966 C   0  0  0  0  0  0  0  0  0  0  0  0
   32.3261    6.0686    4.7267 C   0  0  0  0  0  0  0  0  0  0  0  0
   32.3206    7.1141    5.6376 N   0  0  0  0  0  0  0  0  0  0  0  0
   31.8872    8.4387    5.2138 C   0  0  0  0  0  0  0  0  0  0  0  0
   33.1406    4.9599    4.9893 C   0  0  0  0  0  0  0  0  0  0  0  0
   33.1440    3.8729    4.1362 C   0  0  0  0  0  0  0  0  0  0  0  0
   33.5193    2.2993    1.4912 C   0  0  0  0  0  0  0  0  0  0  0  0
   34.7620    2.9950    1.6518 C   0  0  0  0  0  0  0  0  0  0  0  0
   35.7120    2.2505    1.0370 C   0  0  0  0  0  0  0  0  0  0  0  0
   35.0471    1.1091    0.4882 C   0  0  0  0  0  0  0  0  0  0  0  0
   33.6976    1.1691    0.7334 N   0  0  0  0  0  0  0  0  0  0  0  0
   36.7839    0.0770   -0.1493 H   0  0  0  0  0  0  0  0  0  0  0  0
   36.8014   -2.2898   -1.2424 H   0  0  0  0  0  0  0  0  0  0  0  0
   34.9060   -3.8669   -2.3366 H   0  0  0  0  0  0  0  0  0  0  0  0
   33.6475   -3.0136   -4.4597 H   0  0  0  0  0  0  0  0  0  0  0  0
   33.6268   -4.9585   -5.9685 H   0  0  0  0  0  0  0  0  0  0  0  0
   33.0602   -7.1612   -6.2713 H   0  0  0  0  0  0  0  0  0  0  0  0
   30.8239   -8.5159   -4.9504 H   0  0  0  0  0  0  0  0  0  0  0  0
   32.4765   -8.8128   -4.3514 H   0  0  0  0  0  0  0  0  0  0  0  0
   32.0499   -9.1795   -6.0434 H   0  0  0  0  0  0  0  0  0  0  0  0
   30.9158   -6.9740   -3.3102 H   0  0  0  0  0  0  0  0  0  0  0  0
   30.9580   -5.0412   -1.8126 H   0  0  0  0  0  0  0  0  0  0  0  0
   29.7268   -3.1881   -3.2002 H   0  0  0  0  0  0  0  0  0  0  0  0
   27.8348   -1.7122   -1.9708 H   0  0  0  0  0  0  0  0  0  0  0  0
   27.8794    1.5434    2.1424 H   0  0  0  0  0  0  0  0  0  0  0  0
   29.7835    3.0586    3.3043 H   0  0  0  0  0  0  0  0  0  0  0  0
   30.8787    4.9602    1.8679 H   0  0  0  0  0  0  0  0  0  0  0  0
   30.8569    6.8895    3.3708 H   0  0  0  0  0  0  0  0  0  0  0  0
   33.1596    7.1448    6.2042 H   0  0  0  0  0  0  0  0  0  0  0  0
   32.4173    8.7674    4.3126 H   0  0  0  0  0  0  0  0  0  0  0  0
   32.0915    9.1357    6.0265 H   0  0  0  0  0  0  0  0  0  0  0  0
   30.8141    8.4357    5.0181 H   0  0  0  0  0  0  0  0  0  0  0  0
   33.7707    4.9586    5.8725 H   0  0  0  0  0  0  0  0  0  0  0  0
   33.7713    3.0167    4.3591 H   0  0  0  0  0  0  0  0  0  0  0  0
   34.8799    3.9347    2.1668 H   0  0  0  0  0  0  0  0  0  0  0  0
   36.7701    2.4414    0.9522 H   0  0  0  0  0  0  0  0  0  0  0  0
   24.9366   -0.0805    0.0994 C   0  0  0  0  0  0  0  0  0  0  0  0
   23.7086   -0.0791    0.1006 C   0  0  0  0  0  0  0  0  0  0  0  0
   22.3636   -0.0711    0.0954 C   0  0  0  0  0  0  0  0  0  0  0  0
   21.1402   -0.0598    0.0867 C   0  0  0  0  0  0  0  0  0  0  0  0
   26.2816   -0.0778    0.0904 C   0  0  0  0  0  0  0  0  0  0  0  0
   27.5050   -0.0722    0.0775 C   0  0  0  0  0  0  0  0  0  0  0  0
  2  3  4  0  0  0  0
  3  4  4  0  0  0  0
  4  5  2  0  0  0  0
  5  6  4  0  0  0  0
  1  7  1  0  0  0  0
  3  7  4  0  0  0  0
  6  7  4  0  0  0  0
  6  8  4  0  0  0  0
  8  9  1  0  0  0  0
  9 10  4  0  0  0  0
 10 11  4  0  0  0  0
 11 12  4  0  0  0  0
 12 13  1  0  0  0  0
 13 14  1  0  0  0  0
 12 15  4  0  0  0  0
  9 16  4  0  0  0  0
 15 16  4  0  0  0  0
  8 17  4  0  0  0  0
 17 18  4  0  0  0  0
 18 19  2  0  0  0  0
  1 20  1  0  0  0  0
 17 20  4  0  0  0  0
 19 21  4  0  0  0  0
 20 21  4  0  0  0  0
 21 22  4  0  0  0  0
 22 23  4  0  0  0  0
 23 24  4  0  0  0  0
 24 25  2  0  0  0  0
 25 26  4  0  0  0  0
  1 27  1  0  0  0  0
 23 27  4  0  0  0  0
 26 27  4  0  0  0  0
 26 28  4  0  0  0  0
 28 29  1  0  0  0  0
 29 30  4  0  0  0  0
 30 31  4  0  0  0  0
 31 32  4  0  0  0  0
 32 33  1  0  0  0  0
 33 34  1  0  0  0  0
 32 35  4  0  0  0  0
 29 36  4  0  0  0  0
 35 36  4  0  0  0  0
 28 37  4  0  0  0  0
 37 38  4  0  0  0  0
 38 39  2  0  0  0  0
  2 40  4  0  0  0  0
 39 40  4  0  0  0  0
  1 41  1  0  0  0  0
 37 41  4  0  0  0  0
 40 41  4  0  0  0  0
  2 42  1  0  0  0  0
  4 43  1  0  0  0  0
  5 44  1  0  0  0  0
 10 45  1  0  0  0  0
 11 46  1  0  0  0  0
 13 47  1  0  0  0  0
 14 48  1  0  0  0  0
 14 49  1  0  0  0  0
 14 50  1  0  0  0  0
 15 51  1  0  0  0  0
 16 52  1  0  0  0  0
 18 53  1  0  0  0  0
 19 54  1  0  0  0  0
 24 55  1  0  0  0  0
 25 56  1  0  0  0  0
 30 57  1  0  0  0  0
 31 58  1  0  0  0  0
 33 59  1  0  0  0  0
 34 60  1  0  0  0  0
 34 61  1  0  0  0  0
 34 62  1  0  0  0  0
 35 63  1  0  0  0  0
 36 64  1  0  0  0  0
 38 65  1  0  0  0  0
 39 66  1  0  0  0  0
 68 69  4  0  0  0  0
 69 70  4  0  0  0  0
 70 71  2  0  0  0  0
 71 72  4  0  0  0  0
 67 73  1  0  0  0  0
 69 73  4  0  0  0  0
 72 73  4  0  0  0  0
 72 74  4  0  0  0  0
 74 75  1  0  0  0  0
 75 76  4  0  0  0  0
 76 77  4  0  0  0  0
 77 78  4  0  0  0  0
 78 79  1  0  0  0  0
 79 80  1  0  0  0  0
 78 81  4  0  0  0  0
 75 82  4  0  0  0  0
 81 82  4  0  0  0  0
 74 83  4  0  0  0  0
 83 84  4  0  0  0  0
 84 85  2  0  0  0  0
 67 86  1  0  0  0  0
 83 86  4  0  0  0  0
 85 87  4  0  0  0  0
 86 87  4  0  0  0  0
 87 88  4  0  0  0  0
 88 89  4  0  0  0  0
 89 90  4  0  0  0  0
 90 91  2  0  0  0  0
 91 92  4  0  0  0  0
 67 93  1  0  0  0  0
 89 93  4  0  0  0  0
 92 93  4  0  0  0  0
 92 94  4  0  0  0  0
 94 95  1  0  0  0  0
 95 96  4  0  0  0  0
 96 97  4  0  0  0  0
 97 98  4  0  0  0  0
 98 99  1  0  0  0  0
 99100  1  0  0  0  0
 98101  4  0  0  0  0
 95102  4  0  0  0  0
101102  4  0  0  0  0
 94103  4  0  0  0  0
103104  4  0  0  0  0
104105  2  0  0  0  0
 68106  4  0  0  0  0
105106  4  0  0  0  0
 67107  1  0  0  0  0
103107  4  0  0  0  0
106107  4  0  0  0  0
 68108  1  0  0  0  0
 70109  1  0  0  0  0
 71110  1  0  0  0  0
 76111  1  0  0  0  0
 77112  1  0  0  0  0
 79113  1  0  0  0  0
 80114  1  0  0  0  0
 80115  1  0  0  0  0
 80116  1  0  0  0  0
 81117  1  0  0  0  0
 82118  1  0  0  0  0
 84119  1  0  0  0  0
 85120  1  0  0  0  0
 90121  1  0  0  0  0
 91122  1  0  0  0  0
 96123  1  0  0  0  0
 97124  1  0  0  0  0
 99125  1  0  0  0  0
100126  1  0  0  0  0
100127  1  0  0  0  0
100128  1  0  0  0  0
101129  1  0  0  0  0
102130  1  0  0  0  0
104131  1  0  0  0  0
105132  1  0  0  0  0
133134  3  0  0  0  0
134135  4  0  0  0  0
 22136  4  0  0  0  0
135136  3  0  0  0  0
133137  4  0  0  0  0
 88138  4  0  0  0  0
137138  3  0  0  0  0
M  END
