446

C 88.131996 0.049367 0.004436
C 88.856850 -1.004567 0.895720
C 88.241399 -1.991743 1.631805
C 89.262826 -2.695881 2.319598
C 90.468503 -2.108430 1.986150
N 90.211523 -1.104915 1.086266
C 91.896557 -2.493791 2.556418
C 91.946058 -3.441078 3.695173
C 92.195445 -4.799477 3.476831
C 92.248052 -5.690069 4.553267
C 92.093499 -5.229766 5.863759
N 92.054841 -6.140985 6.933826
C 91.769912 -3.885234 6.072617
C 91.718542 -2.990915 4.999092
C 93.025207 -1.936770 2.038779
C 94.334502 -2.217150 2.591520
C 95.236028 -1.520792 1.909362
N 93.218245 -1.059146 1.003410
C 94.552411 -0.769254 0.875199
C 95.222316 0.035706 0.007363
C 94.447784 0.815739 -1.139179
C 95.002164 1.308900 -2.304046
C 93.977110 1.976348 -3.018209
C 92.820411 1.860397 -2.278095
N 93.106647 1.114875 -1.158105
C 91.403361 2.463241 -2.657758
C 91.353580 3.545004 -3.666060
C 91.133764 3.245095 -5.014155
C 91.084692 4.267564 -5.966002
C 91.207829 5.604690 -5.578653
N 91.247633 6.620834 -6.549587
C 91.497818 5.895576 -4.241826
C 91.549645 4.875584 -3.286484
C 90.281193 1.988271 -2.057114
C 88.955923 2.500730 -2.357970
C 88.072345 1.829978 -1.625187
C 88.797571 0.870746 -0.829023
N 90.120031 1.011159 -1.114246
H 87.052994 0.115044 0.073700
H 87.178737 -2.175895 1.679021
H 89.130807 -3.524815 2.999784
H 90.915293 -0.527031 0.633307
H 92.343272 -5.152604 2.459573
H 92.421744 -6.741957 4.351599
H 92.283315 -5.698546 7.818380
H 92.620540 -6.964504 6.754160
H 91.563752 -3.512033 7.070555
H 91.494043 -1.939305 5.165330
H 94.550564 -2.865425 3.421592
H 96.292227 -1.534088 2.105637
H 96.033627 1.212764 -2.605898
H 94.073489 2.486842 -3.964452
H 92.417924 0.798158 -0.480574
H 91.008230 2.206594 -5.311028
H 90.940395 4.002944 -7.007952
H 90.700426 6.384272 -7.369979
H 90.996895 7.524834 -6.163495
H 91.677457 6.917252 -3.923108
H 91.747747 5.105106 -2.241685
H 88.724285 3.287179 -3.053279
H 87.007327 1.973461 -1.620952
C 182.109909 0.035987 0.021331
C 181.385055 0.662164 -1.208737
C 182.000506 1.152560 -2.338272
C 180.979079 1.660780 -3.181232
C 179.773402 1.470757 -2.533021
N 180.030382 0.824659 -1.350063
C 178.345348 1.937594 -3.038760
C 178.295847 2.829092 -4.221700
C 178.046460 2.305406 -5.493971
C 177.993853 3.149227 -6.607449
C 178.148406 4.530312 -6.459560
N 178.187064 5.363210 -7.591658
C 178.471993 5.041591 -5.198615
C 178.523363 4.201456 -4.082176
C 177.216698 1.561306 -2.377980
C 175.907403 2.035130 -2.777514
C 175.005877 1.530613 -1.943418
N 177.023660 0.754490 -1.286531
C 175.689494 0.696089 -0.974979
C 175.019589 0.035706 0.007363
C 175.794121 -0.901681 1.029279
C 175.239741 -1.922617 1.776149
C 176.264795 -2.464910 2.589434
C 177.421494 -1.771033 2.307039
N 177.135258 -0.851586 1.324797
C 178.838544 -2.002516 2.980819
C 178.888325 -2.736226 4.264779
C 179.108141 -4.117177 4.281633
C 179.157213 -4.809514 5.494944
C 179.034076 -4.126186 6.707796
N 178.994272 -4.838553 7.919322
C 178.744087 -2.758272 6.684739
C 178.692260 -2.061965 5.473039
C 179.960712 -1.526636 2.380895
C 181.285982 -1.702112 2.948643
C 182.169560 -1.142451 2.127876
C 181.444334 -0.587172 1.011780
N 180.121874 -0.832650 1.213793
H 183.188911 0.118452 0.069396
H 183.063168 1.156341 -2.528343
H 181.111098 2.133011 -4.143928
H 179.326612 0.516111 -0.683789
H 177.898633 1.234307 -5.604701
H 177.820161 2.711980 -7.585178
H 177.958590 6.325589 -7.363595
H 177.621365 4.999689 -8.352129
H 178.678153 6.098481 -5.063920
H 178.747862 4.604153 -3.096602
H 175.691341 2.694641 -3.598686
H 173.949678 1.718623 -2.001318
H 174.208278 -2.238465 1.751709
H 176.168416 -3.269064 3.303098
H 177.823980 -0.264614 0.861309
H 179.233675 -4.644031 3.338743
H 179.301510 -5.884375 5.476024
H 179.541479 -5.691319 7.876965
H 179.245010 -4.255659 8.710850
H 178.564448 -2.214007 7.606248
H 178.494158 -0.992371 5.457141
H 181.517620 -2.198794 3.873448
H 183.234578 -1.105463 2.266574
C 99.045774 0.048438 0.009888
C 97.793503 0.029257 0.005539
C 100.359442 0.047672 0.011820
C 101.862576 0.029257 0.005539
C 113.180153 0.048438 0.009888
C 111.927883 0.029257 0.005539
C 114.493821 0.047672 0.011820
C 115.996955 0.029257 0.005539
C 127.314532 0.048438 0.009888
C 126.062262 0.029257 0.005539
C 128.628200 0.047672 0.011820
C 130.131334 0.029257 0.005539
C 141.448911 0.048438 0.009888
C 140.196641 0.029257 0.005539
C 142.762579 0.047672 0.011820
C 144.265713 0.029257 0.005539
C 155.583290 0.048438 0.009888
C 154.331020 0.029257 0.005539
C 156.896959 0.047672 0.011820
C 158.400092 0.029257 0.005539
C 169.717670 0.048438 0.009888
C 168.465399 0.029257 0.005539
C 171.031338 0.047672 0.011820
C 172.534471 0.029257 0.005539
C 103.275966 -0.016861 -0.003437
C 104.068611 -0.603019 1.237193
C 103.560118 -1.413453 2.232024
C 104.596732 -1.625966 3.176597
C 105.707752 -0.945089 2.725128
N 105.397904 -0.389940 1.508771
C 107.097477 -0.813925 3.472909
C 107.091618 -0.906578 4.951585
C 107.551186 -2.060457 5.595355
C 107.542509 -2.142539 6.991089
C 107.112896 -1.059890 7.763590
N 107.019386 -1.180859 9.160928
C 106.583409 0.060752 7.117280
C 106.591668 0.147477 5.721573
C 108.232204 -0.576633 2.762894
C 109.519176 -0.387433 3.400260
C 110.426852 -0.168488 2.455095
N 108.440169 -0.448578 1.417231
C 109.764544 -0.206730 1.166807
C 110.428650 -0.016861 -0.003437
C 109.635992 -0.066503 -1.374633
C 110.144298 -0.419651 -2.608313
C 109.107703 -0.242470 -3.560175
C 107.996880 0.205878 -2.876911
N 108.306831 0.236859 -1.540250
C 106.607185 0.621271 -3.512364
C 106.612867 1.118591 -4.907950
C 107.110490 2.391660 -5.200319
C 107.118350 2.861670 -6.517369
C 106.590819 2.085110 -7.553038
N 106.684086 2.524404 -8.885051
C 106.163559 0.784902 -7.269541
C 106.155200 0.310661 -5.954299
C 105.472483 0.559522 -2.766275
C 104.185492 0.984432 -3.277569
C 103.277793 0.813008 -2.322665
C 103.940104 0.270155 -1.153698
N 105.264532 0.146866 -1.479062
H 102.550654 -1.791592 2.287081
H 104.534405 -2.193128 4.093321
H 106.059887 0.068388 0.889236
H 107.911727 -2.893129 4.995388
H 107.884076 -3.058535 7.461501
H 107.711811 -1.820637 9.535417
H 107.033815 -0.277797 9.623038
H 106.165975 0.884181 7.687307
H 106.202494 1.031848 5.222069
H 109.714616 -0.407751 4.457405
H 111.471091 0.009251 2.636144
H 111.153632 -0.745951 -2.807918
H 109.169883 -0.402704 -4.626186
H 107.644934 0.414276 -0.790230
H 107.498085 3.008565 -4.392677
H 107.533944 3.843852 -6.716872
H 105.992976 2.082223 -9.481622
H 106.667450 3.536442 -8.954223
H 105.823561 0.127548 -8.062820
H 105.796414 -0.691656 -5.730887
H 103.990078 1.382314 -4.257207
H 102.233521 1.047499 -2.419101
C 117.410345 -0.016861 -0.003437
C 118.202990 -0.603019 1.237193
C 117.694498 -1.413453 2.232024
C 118.731111 -1.625966 3.176597
C 119.842131 -0.945089 2.725128
N 119.532284 -0.389940 1.508771
C 121.231856 -0.813925 3.472909
C 121.225998 -0.906578 4.951585
C 121.685565 -2.060457 5.595355
C 121.676888 -2.142539 6.991089
C 121.247275 -1.059890 7.763590
N 121.153766 -1.180859 9.160928
C 120.717788 0.060752 7.117280
C 120.726047 0.147477 5.721573
C 122.366583 -0.576633 2.762894
C 123.653555 -0.387433 3.400260
C 124.561231 -0.168488 2.455095
N 122.574549 -0.448578 1.417231
C 123.898924 -0.206730 1.166807
C 124.563030 -0.016861 -0.003437
C 123.770372 -0.066503 -1.374633
C 124.278677 -0.419651 -2.608313
C 123.242082 -0.242470 -3.560175
C 122.131259 0.205878 -2.876911
N 122.441210 0.236859 -1.540250
C 120.741565 0.621271 -3.512364
C 120.747246 1.118591 -4.907950
C 121.244870 2.391660 -5.200319
C 121.252729 2.861670 -6.517369
C 120.725198 2.085110 -7.553038
N 120.818466 2.524404 -8.885051
C 120.297938 0.784902 -7.269541
C 120.289579 0.310661 -5.954299
C 119.606862 0.559522 -2.766275
C 118.319871 0.984432 -3.277569
C 117.412172 0.813008 -2.322665
C 118.074483 0.270155 -1.153698
N 119.398911 0.146866 -1.479062
H 116.685033 -1.791592 2.287081
H 118.668784 -2.193128 4.093321
H 120.194266 0.068388 0.889236
H 122.046106 -2.893129 4.995388
H 122.018455 -3.058535 7.461501
H 121.846190 -1.820637 9.535417
H 121.168194 -0.277797 9.623038
H 120.300354 0.884181 7.687307
H 120.336873 1.031848 5.222069
H 123.848995 -0.407751 4.457405
H 125.605470 0.009251 2.636144
H 125.288011 -0.745951 -2.807918
H 123.304262 -0.402704 -4.626186
H 121.779313 0.414276 -0.790230
H 121.632464 3.008565 -4.392677
H 121.668323 3.843852 -6.716872
H 120.127355 2.082223 -9.481622
H 120.801829 3.536442 -8.954223
H 119.957940 0.127548 -8.062820
H 119.930793 -0.691656 -5.730887
H 118.124457 1.382314 -4.257207
H 116.367900 1.047499 -2.419101
C 131.544724 -0.016861 -0.003437
C 132.337369 -0.603019 1.237193
C 131.828877 -1.413453 2.232024
C 132.865491 -1.625966 3.176597
C 133.976510 -0.945089 2.725128
N 133.666663 -0.389940 1.508771
C 135.366235 -0.813925 3.472909
C 135.360377 -0.906578 4.951585
C 135.819944 -2.060457 5.595355
C 135.811268 -2.142539 6.991089
C 135.381654 -1.059890 7.763590
N 135.288145 -1.180859 9.160928
C 134.852167 0.060752 7.117280
C 134.860426 0.147477 5.721573
C 136.500962 -0.576633 2.762894
C 137.787934 -0.387433 3.400260
C 138.695610 -0.168488 2.455095
N 136.708928 -0.448578 1.417231
C 138.033303 -0.206730 1.166807
C 138.697409 -0.016861 -0.003437
C 137.904751 -0.066503 -1.374633
C 138.413056 -0.419651 -2.608313
C 137.376462 -0.242470 -3.560175
C 136.265638 0.205878 -2.876911
N 136.575589 0.236859 -1.540250
C 134.875944 0.621271 -3.512364
C 134.881625 1.118591 -4.907950
C 135.379249 2.391660 -5.200319
C 135.387109 2.861670 -6.517369
C 134.859578 2.085110 -7.553038
N 134.952845 2.524404 -8.885051
C 134.432317 0.784902 -7.269541
C 134.423958 0.310661 -5.954299
C 133.741241 0.559522 -2.766275
C 132.454250 0.984432 -3.277569
C 131.546552 0.813008 -2.322665
C 132.208863 0.270155 -1.153698
N 133.533291 0.146866 -1.479062
H 130.819412 -1.791592 2.287081
H 132.803164 -2.193128 4.093321
H 134.328645 0.068388 0.889236
H 136.180485 -2.893129 4.995388
H 136.152834 -3.058535 7.461501
H 135.980569 -1.820637 9.535417
H 135.302573 -0.277797 9.623038
H 134.434733 0.884181 7.687307
H 134.471252 1.031848 5.222069
H 137.983374 -0.407751 4.457405
H 139.739849 0.009251 2.636144
H 139.422390 -0.745951 -2.807918
H 137.438641 -0.402704 -4.626186
H 135.913692 0.414276 -0.790230
H 135.766843 3.008565 -4.392677
H 135.802702 3.843852 -6.716872
H 134.261734 2.082223 -9.481622
H 134.936208 3.536442 -8.954223
H 134.092319 0.127548 -8.062820
H 134.065172 -0.691656 -5.730887
H 132.258837 1.382314 -4.257207
H 130.502280 1.047499 -2.419101
C 145.679103 -0.016861 -0.003437
C 146.471748 -0.603019 1.237193
C 145.963256 -1.413453 2.232024
C 146.999870 -1.625966 3.176597
C 148.110889 -0.945089 2.725128
N 147.801042 -0.389940 1.508771
C 149.500615 -0.813925 3.472909
C 149.494756 -0.906578 4.951585
C 149.954323 -2.060457 5.595355
C 149.945647 -2.142539 6.991089
C 149.516033 -1.059890 7.763590
N 149.422524 -1.180859 9.160928
C 148.986547 0.060752 7.117280
C 148.994805 0.147477 5.721573
C 150.635342 -0.576633 2.762894
C 151.922313 -0.387433 3.400260
C 152.829989 -0.168488 2.455095
N 150.843307 -0.448578 1.417231
C 152.167682 -0.206730 1.166807
C 152.831788 -0.016861 -0.003437
C 152.039130 -0.066503 -1.374633
C 152.547436 -0.419651 -2.608313
C 151.510841 -0.242470 -3.560175
C 150.400017 0.205878 -2.876911
N 150.709968 0.236859 -1.540250
C 149.010323 0.621271 -3.512364
C 149.016004 1.118591 -4.907950
C 149.513628 2.391660 -5.200319
C 149.521488 2.861670 -6.517369
C 148.993957 2.085110 -7.553038
N 149.087224 2.524404 -8.885051
C 148.566696 0.784902 -7.269541
C 148.558337 0.310661 -5.954299
C 147.875620 0.559522 -2.766275
C 146.588630 0.984432 -3.277569
C 145.680931 0.813008 -2.322665
C 146.343242 0.270155 -1.153698
N 147.667670 0.146866 -1.479062
H 144.953792 -1.791592 2.287081
H 146.937543 -2.193128 4.093321
H 148.463024 0.068388 0.889236
H 150.314864 -2.893129 4.995388
H 150.287213 -3.058535 7.461501
H 150.114948 -1.820637 9.535417
H 149.436953 -0.277797 9.623038
H 148.569113 0.884181 7.687307
H 148.605632 1.031848 5.222069
H 152.117753 -0.407751 4.457405
H 153.874228 0.009251 2.636144
H 153.556769 -0.745951 -2.807918
H 151.573020 -0.402704 -4.626186
H 150.048071 0.414276 -0.790230
H 149.901222 3.008565 -4.392677
H 149.937081 3.843852 -6.716872
H 148.396113 2.082223 -9.481622
H 149.070588 3.536442 -8.954223
H 148.226698 0.127548 -8.062820
H 148.199551 -0.691656 -5.730887
H 146.393216 1.382314 -4.257207
H 144.636659 1.047499 -2.419101
C 159.813483 -0.016861 -0.003437
C 160.606128 -0.603019 1.237193
C 160.097635 -1.413453 2.232024
C 161.134249 -1.625966 3.176597
C 162.245268 -0.945089 2.725128
N 161.935421 -0.389940 1.508771
C 163.634994 -0.813925 3.472909
C 163.629135 -0.906578 4.951585
C 164.088702 -2.060457 5.595355
C 164.080026 -2.142539 6.991089
C 163.650412 -1.059890 7.763590
N 163.556903 -1.180859 9.160928
C 163.120926 0.060752 7.117280
C 163.129184 0.147477 5.721573
C 164.769721 -0.576633 2.762894
C 166.056693 -0.387433 3.400260
C 166.964368 -0.168488 2.455095
N 164.977686 -0.448578 1.417231
C 166.302061 -0.206730 1.166807
C 166.966167 -0.016861 -0.003437
C 166.173509 -0.066503 -1.374633
C 166.681815 -0.419651 -2.608313
C 165.645220 -0.242470 -3.560175
C 164.534396 0.205878 -2.876911
N 164.844347 0.236859 -1.540250
C 163.144702 0.621271 -3.512364
C 163.150383 1.118591 -4.907950
C 163.648007 2.391660 -5.200319
C 163.655867 2.861670 -6.517369
C 163.128336 2.085110 -7.553038
N 163.221603 2.524404 -8.885051
C 162.701075 0.784902 -7.269541
C 162.692716 0.310661 -5.954299
C 162.009999 0.559522 -2.766275
C 160.723009 0.984432 -3.277569
C 159.815310 0.813008 -2.322665
C 160.477621 0.270155 -1.153698
N 161.802049 0.146866 -1.479062
H 159.088171 -1.791592 2.287081
H 161.071922 -2.193128 4.093321
H 162.597403 0.068388 0.889236
H 164.449243 -2.893129 4.995388
H 164.421592 -3.058535 7.461501
H 164.249327 -1.820637 9.535417
H 163.571332 -0.277797 9.623038
H 162.703492 0.884181 7.687307
H 162.740011 1.031848 5.222069
H 166.252132 -0.407751 4.457405
H 168.008608 0.009251 2.636144
H 167.691149 -0.745951 -2.807918
H 165.707399 -0.402704 -4.626186
H 164.182450 0.414276 -0.790230
H 164.035601 3.008565 -4.392677
H 164.071460 3.843852 -6.716872
H 162.530493 2.082223 -9.481622
H 163.204967 3.536442 -8.954223
H 162.361077 0.127548 -8.062820
H 162.333930 -0.691656 -5.730887
H 160.527595 1.382314 -4.257207
H 158.771038 1.047499 -2.419101
