 xtb: 6.5.1 (b24c23e)
          07302212413D

201230  0     0  0            999 V2000
   28.1208    0.0042   -0.0416 Zn  0  0  0  0  0  0  0  0  0  0  0  0
   24.7137    0.0531   -0.1868 C   0  0  0  0  0  0  0  0  0  0  0  0
   25.3485    1.2879   -0.1314 C   0  0  0  0  0  0  0  0  0  0  0  0
   24.6790    2.5579   -0.0934 C   0  0  0  0  0  0  0  0  0  0  0  0
   25.6408    3.5117   -0.0238 C   0  0  0  0  0  0  0  0  0  0  0  0
   26.9115    2.8361   -0.0286 C   0  0  0  0  0  0  0  0  0  0  0  0
   26.6984    1.4897   -0.0868 N   0  0  0  0  0  0  0  0  0  0  0  0
   28.1640    3.4583    0.0439 C   0  0  0  0  0  0  0  0  0  0  0  0
   28.1824    4.9433    0.0851 C   0  0  0  0  0  0  0  0  0  0  0  0
   27.6742    5.6807   -0.9845 C   0  0  0  0  0  0  0  0  0  0  0  0
   27.6944    7.0700   -0.9463 C   0  0  0  0  0  0  0  0  0  0  0  0
   27.2102    7.7963   -1.9838 O   0  0  0  0  0  0  0  0  0  0  0  0
   28.2173    7.7272    0.1685 C   0  0  0  0  0  0  0  0  0  0  0  0
   28.2206    9.0979    0.1804 O   0  0  0  0  0  0  0  0  0  0  0  0
   28.7214    6.9912    1.2376 C   0  0  0  0  0  0  0  0  0  0  0  0
   29.2142    7.7059    2.2982 O   0  0  0  0  0  0  0  0  0  0  0  0
   28.7097    5.6024    1.1989 C   0  0  0  0  0  0  0  0  0  0  0  0
   29.3992    2.8023    0.0789 C   0  0  0  0  0  0  0  0  0  0  0  0
   30.6823    3.4488    0.0945 C   0  0  0  0  0  0  0  0  0  0  0  0
   31.6239    2.4708    0.1050 C   0  0  0  0  0  0  0  0  0  0  0  0
   29.5870    1.4453    0.0702 N   0  0  0  0  0  0  0  0  0  0  0  0
   30.9274    1.2183    0.0889 C   0  0  0  0  0  0  0  0  0  0  0  0
   31.5532   -0.0454    0.0782 C   0  0  0  0  0  0  0  0  0  0  0  0
   30.8933   -1.2906    0.0377 C   0  0  0  0  0  0  0  0  0  0  0  0
   31.5557   -2.5615    0.0068 C   0  0  0  0  0  0  0  0  0  0  0  0
   30.5883   -3.5122   -0.0460 C   0  0  0  0  0  0  0  0  0  0  0  0
   29.3231   -2.8308   -0.0413 C   0  0  0  0  0  0  0  0  0  0  0  0
   29.5473   -1.4799    0.0048 N   0  0  0  0  0  0  0  0  0  0  0  0
   28.0713   -3.4508   -0.1107 C   0  0  0  0  0  0  0  0  0  0  0  0
   28.0487   -4.9363   -0.1397 C   0  0  0  0  0  0  0  0  0  0  0  0
   28.5422   -5.6667    0.9414 C   0  0  0  0  0  0  0  0  0  0  0  0
   28.5143   -7.0562    0.9155 C   0  0  0  0  0  0  0  0  0  0  0  0
   28.9831   -7.7759    1.9645 O   0  0  0  0  0  0  0  0  0  0  0  0
   27.9990   -7.7206   -0.1986 C   0  0  0  0  0  0  0  0  0  0  0  0
   27.9872   -9.0914   -0.1980 O   0  0  0  0  0  0  0  0  0  0  0  0
   27.5102   -6.9914   -1.2794 C   0  0  0  0  0  0  0  0  0  0  0  0
   27.0239   -7.7127   -2.3389 O   0  0  0  0  0  0  0  0  0  0  0  0
   27.5291   -5.6024   -1.2529 C   0  0  0  0  0  0  0  0  0  0  0  0
   26.8357   -2.7926   -0.1583 C   0  0  0  0  0  0  0  0  0  0  0  0
   25.5475   -3.4334   -0.1868 C   0  0  0  0  0  0  0  0  0  0  0  0
   24.6115   -2.4517   -0.2133 C   0  0  0  0  0  0  0  0  0  0  0  0
   25.3148   -1.2000   -0.1912 C   0  0  0  0  0  0  0  0  0  0  0  0
   26.6585   -1.4401   -0.1557 N   0  0  0  0  0  0  0  0  0  0  0  0
   23.6286    0.0685   -0.2180 H   0  0  0  0  0  0  0  0  0  0  0  0
   23.6085    2.6902   -0.1108 H   0  0  0  0  0  0  0  0  0  0  0  0
   25.5063    4.5798    0.0364 H   0  0  0  0  0  0  0  0  0  0  0  0
   27.2791    5.1810   -1.8597 H   0  0  0  0  0  0  0  0  0  0  0  0
   27.3139    8.7383   -1.7702 H   0  0  0  0  0  0  0  0  0  0  0  0
   28.6159    9.3874    1.0182 H   0  0  0  0  0  0  0  0  0  0  0  0
   29.5437    7.1140    2.9871 H   0  0  0  0  0  0  0  0  0  0  0  0
   29.0917    5.0359    2.0402 H   0  0  0  0  0  0  0  0  0  0  0  0
   30.8418    4.5150    0.0831 H   0  0  0  0  0  0  0  0  0  0  0  0
   32.6966    2.5808    0.1157 H   0  0  0  0  0  0  0  0  0  0  0  0
   32.6250   -2.7006    0.0186 H   0  0  0  0  0  0  0  0  0  0  0  0
   30.7183   -4.5812   -0.0960 H   0  0  0  0  0  0  0  0  0  0  0  0
   28.9320   -5.1613    1.8157 H   0  0  0  0  0  0  0  0  0  0  0  0
   28.8777   -8.7192    1.7576 H   0  0  0  0  0  0  0  0  0  0  0  0
   27.6014   -9.3859   -1.0385 H   0  0  0  0  0  0  0  0  0  0  0  0
   26.7078   -7.1248   -3.0374 H   0  0  0  0  0  0  0  0  0  0  0  0
   27.1584   -5.0415   -2.1030 H   0  0  0  0  0  0  0  0  0  0  0  0
   25.3836   -4.4992   -0.1746 H   0  0  0  0  0  0  0  0  0  0  0  0
   23.5378   -2.5546   -0.2372 H   0  0  0  0  0  0  0  0  0  0  0  0
   65.3500   -0.0393   -0.0264 Zn  0  0  0  0  0  0  0  0  0  0  0  0
   68.7552   -0.0699   -0.2102 C   0  0  0  0  0  0  0  0  0  0  0  0
   68.1202   -1.3033   -0.2897 C   0  0  0  0  0  0  0  0  0  0  0  0
   68.7893   -2.5689   -0.4036 C   0  0  0  0  0  0  0  0  0  0  0  0
   67.8277   -3.5249   -0.4344 C   0  0  0  0  0  0  0  0  0  0  0  0
   66.5574   -2.8538   -0.3497 C   0  0  0  0  0  0  0  0  0  0  0  0
   66.7708   -1.5096   -0.2553 N   0  0  0  0  0  0  0  0  0  0  0  0
   65.3052   -3.4808   -0.3367 C   0  0  0  0  0  0  0  0  0  0  0  0
   65.2864   -4.9607   -0.4675 C   0  0  0  0  0  0  0  0  0  0  0  0
   65.7850   -5.5689   -1.6197 C   0  0  0  0  0  0  0  0  0  0  0  0
   65.7649   -6.9533   -1.7425 C   0  0  0  0  0  0  0  0  0  0  0  0
   66.2399   -7.5542   -2.8612 O   0  0  0  0  0  0  0  0  0  0  0  0
   65.2514   -7.7357   -0.7070 C   0  0  0  0  0  0  0  0  0  0  0  0
   65.2478   -9.0986   -0.8539 O   0  0  0  0  0  0  0  0  0  0  0  0
   64.7567   -7.1288    0.4445 C   0  0  0  0  0  0  0  0  0  0  0  0
   64.2728   -7.9620    1.4194 O   0  0  0  0  0  0  0  0  0  0  0  0
   64.7687   -5.7449    0.5670 C   0  0  0  0  0  0  0  0  0  0  0  0
   64.0709   -2.8337   -0.2134 C   0  0  0  0  0  0  0  0  0  0  0  0
   62.7874   -3.4782   -0.2581 C   0  0  0  0  0  0  0  0  0  0  0  0
   61.8469   -2.5082   -0.1254 C   0  0  0  0  0  0  0  0  0  0  0  0
   63.8842   -1.4847   -0.0644 N   0  0  0  0  0  0  0  0  0  0  0  0
   62.5443   -1.2618   -0.0053 C   0  0  0  0  0  0  0  0  0  0  0  0
   61.9195   -0.0055    0.1355 C   0  0  0  0  0  0  0  0  0  0  0  0
   62.5798    1.2367    0.2303 C   0  0  0  0  0  0  0  0  0  0  0  0
   61.9178    2.5024    0.3513 C   0  0  0  0  0  0  0  0  0  0  0  0
   62.8851    3.4535    0.3964 C   0  0  0  0  0  0  0  0  0  0  0  0
   64.1499    2.7769    0.3098 C   0  0  0  0  0  0  0  0  0  0  0  0
   63.9255    1.4293    0.2046 N   0  0  0  0  0  0  0  0  0  0  0  0
   65.4013    3.4015    0.2974 C   0  0  0  0  0  0  0  0  0  0  0  0
   65.4247    4.8808    0.4353 C   0  0  0  0  0  0  0  0  0  0  0  0
   64.9414    5.4853    1.5959 C   0  0  0  0  0  0  0  0  0  0  0  0
   64.9693    6.8691    1.7252 C   0  0  0  0  0  0  0  0  0  0  0  0
   64.5102    7.4664    2.8524 O   0  0  0  0  0  0  0  0  0  0  0  0
   65.4745    7.6544    0.6878 C   0  0  0  0  0  0  0  0  0  0  0  0
   65.4866    9.0164    0.8418 O   0  0  0  0  0  0  0  0  0  0  0  0
   65.9532    7.0511   -0.4722 C   0  0  0  0  0  0  0  0  0  0  0  0
   66.4299    7.8868   -1.4487 O   0  0  0  0  0  0  0  0  0  0  0  0
   65.9342    5.6678   -0.6011 C   0  0  0  0  0  0  0  0  0  0  0  0
   66.6358    2.7534    0.1628 C   0  0  0  0  0  0  0  0  0  0  0  0
   67.9242    3.3937    0.1943 C   0  0  0  0  0  0  0  0  0  0  0  0
   68.8591    2.4216    0.0473 C   0  0  0  0  0  0  0  0  0  0  0  0
   68.1551    1.1754   -0.0660 C   0  0  0  0  0  0  0  0  0  0  0  0
   66.8120    1.4093    0.0101 N   0  0  0  0  0  0  0  0  0  0  0  0
   69.8400   -0.0812   -0.2538 H   0  0  0  0  0  0  0  0  0  0  0  0
   69.8596   -2.6979   -0.4461 H   0  0  0  0  0  0  0  0  0  0  0  0
   67.9622   -4.5928   -0.4981 H   0  0  0  0  0  0  0  0  0  0  0  0
   66.1726   -4.9710   -2.4345 H   0  0  0  0  0  0  0  0  0  0  0  0
   66.1377   -8.5146   -2.7574 H   0  0  0  0  0  0  0  0  0  0  0  0
   64.8592   -9.4833   -0.0521 H   0  0  0  0  0  0  0  0  0  0  0  0
   63.9492   -7.4538    2.1748 H   0  0  0  0  0  0  0  0  0  0  0  0
   64.3942   -5.2801    1.4716 H   0  0  0  0  0  0  0  0  0  0  0  0
   62.6268   -4.5361   -0.3898 H   0  0  0  0  0  0  0  0  0  0  0  0
   60.7742   -2.6191   -0.1158 H   0  0  0  0  0  0  0  0  0  0  0  0
   60.8488    2.6384    0.3904 H   0  0  0  0  0  0  0  0  0  0  0  0
   62.7551    4.5212    0.4698 H   0  0  0  0  0  0  0  0  0  0  0  0
   64.5596    4.8851    2.4117 H   0  0  0  0  0  0  0  0  0  0  0  0
   64.6125    8.4271    2.7510 H   0  0  0  0  0  0  0  0  0  0  0  0
   65.8630    9.4039    0.0356 H   0  0  0  0  0  0  0  0  0  0  0  0
   66.7386    7.3811   -2.2119 H   0  0  0  0  0  0  0  0  0  0  0  0
   66.2966    5.2060   -1.5121 H   0  0  0  0  0  0  0  0  0  0  0  0
   68.0890    4.4512    0.3260 H   0  0  0  0  0  0  0  0  0  0  0  0
   69.9326    2.5270    0.0246 H   0  0  0  0  0  0  0  0  0  0  0  0
   32.9578   -0.0622    0.0908 C   0  0  0  0  0  0  0  0  0  0  0  0
   34.1829   -0.0694    0.0895 C   0  0  0  0  0  0  0  0  0  0  0  0
   35.5252   -0.0732    0.0806 C   0  0  0  0  0  0  0  0  0  0  0  0
   36.7562   -0.0714    0.0627 C   0  0  0  0  0  0  0  0  0  0  0  0
   38.0937   -0.0659    0.0393 C   0  0  0  0  0  0  0  0  0  0  0  0
   39.3246   -0.0591    0.0134 C   0  0  0  0  0  0  0  0  0  0  0  0
   40.6665   -0.0503   -0.0122 C   0  0  0  0  0  0  0  0  0  0  0  0
   41.8915   -0.0406   -0.0352 C   0  0  0  0  0  0  0  0  0  0  0  0
   51.5817    0.0090    0.0506 C   0  0  0  0  0  0  0  0  0  0  0  0
   52.8065    0.0158    0.0849 C   0  0  0  0  0  0  0  0  0  0  0  0
   54.1484    0.0215    0.1158 C   0  0  0  0  0  0  0  0  0  0  0  0
   55.3791    0.0270    0.1470 C   0  0  0  0  0  0  0  0  0  0  0  0
   56.7166    0.0283    0.1675 C   0  0  0  0  0  0  0  0  0  0  0  0
   57.9477    0.0238    0.1777 C   0  0  0  0  0  0  0  0  0  0  0  0
   59.2901    0.0180    0.1759 C   0  0  0  0  0  0  0  0  0  0  0  0
   60.5151    0.0098    0.1645 C   0  0  0  0  0  0  0  0  0  0  0  0
   46.7378   -0.0136   -0.0367 Zn  0  0  0  0  0  0  0  0  0  0  0  0
   43.2956   -0.0319   -0.0490 C   0  0  0  0  0  0  0  0  0  0  0  0
   43.9338    1.2217    0.0537 C   0  0  0  0  0  0  0  0  0  0  0  0
   43.2494    2.4729    0.1898 C   0  0  0  0  0  0  0  0  0  0  0  0
   44.2004    3.4403    0.2527 C   0  0  0  0  0  0  0  0  0  0  0  0
   45.4755    2.7881    0.1480 C   0  0  0  0  0  0  0  0  0  0  0  0
   45.2761    1.4377    0.0361 N   0  0  0  0  0  0  0  0  0  0  0  0
   46.7179    3.4313    0.1835 C   0  0  0  0  0  0  0  0  0  0  0  0
   46.7080    4.9137    0.2738 C   0  0  0  0  0  0  0  0  0  0  0  0
   47.2691    5.5565    1.3776 C   0  0  0  0  0  0  0  0  0  0  0  0
   47.2617    6.9451    1.4790 C   0  0  0  0  0  0  0  0  0  0  0  0
   47.7960    7.5807    2.5547 O   0  0  0  0  0  0  0  0  0  0  0  0
   46.6938    7.7123    0.4568 C   0  0  0  0  0  0  0  0  0  0  0  0
   46.6755    9.0693    0.5232 O   0  0  0  0  0  0  0  0  0  0  0  0
   46.1380    7.0613   -0.6476 C   0  0  0  0  0  0  0  0  0  0  0  0
   45.6019    7.8709   -1.6163 O   0  0  0  0  0  0  0  0  0  0  0  0
   46.1352    5.6769   -0.7453 C   0  0  0  0  0  0  0  0  0  0  0  0
   47.9677    2.8030    0.1452 C   0  0  0  0  0  0  0  0  0  0  0  0
   49.2361    3.4763    0.1379 C   0  0  0  0  0  0  0  0  0  0  0  0
   50.1977    2.5182    0.0969 C   0  0  0  0  0  0  0  0  0  0  0  0
   48.1817    1.4512    0.0907 N   0  0  0  0  0  0  0  0  0  0  0  0
   49.5266    1.2529    0.0668 C   0  0  0  0  0  0  0  0  0  0  0  0
   50.1779    0.0027    0.0191 C   0  0  0  0  0  0  0  0  0  0  0  0
   49.5398   -1.2521   -0.0606 C   0  0  0  0  0  0  0  0  0  0  0  0
   50.2229   -2.5114   -0.0887 C   0  0  0  0  0  0  0  0  0  0  0  0
   49.2723   -3.4765   -0.1784 C   0  0  0  0  0  0  0  0  0  0  0  0
   47.9984   -2.8140   -0.2129 C   0  0  0  0  0  0  0  0  0  0  0  0
   48.1980   -1.4616   -0.1306 N   0  0  0  0  0  0  0  0  0  0  0  0
   46.7564   -3.4532   -0.2911 C   0  0  0  0  0  0  0  0  0  0  0  0
   46.7655   -4.9351   -0.4076 C   0  0  0  0  0  0  0  0  0  0  0  0
   47.3477   -5.5419   -1.5210 C   0  0  0  0  0  0  0  0  0  0  0  0
   47.3435   -6.9270   -1.6376 C   0  0  0  0  0  0  0  0  0  0  0  0
   47.8903   -7.5292   -2.7201 O   0  0  0  0  0  0  0  0  0  0  0  0
   46.7627   -7.7063   -0.6351 C   0  0  0  0  0  0  0  0  0  0  0  0
   46.7844   -9.0866   -0.7860 O   0  0  0  0  0  0  0  0  0  0  0  0
   46.2154   -7.1031    0.4954 C   0  0  0  0  0  0  0  0  0  0  0  0
   45.6801   -7.8628    1.4936 O   0  0  0  0  0  0  0  0  0  0  0  0
   46.2000   -5.7165    0.6001 C   0  0  0  0  0  0  0  0  0  0  0  0
   45.5067   -2.8247   -0.2665 C   0  0  0  0  0  0  0  0  0  0  0  0
   44.2395   -3.4904   -0.3839 C   0  0  0  0  0  0  0  0  0  0  0  0
   43.2774   -2.5351   -0.3116 C   0  0  0  0  0  0  0  0  0  0  0  0
   43.9471   -1.2773   -0.1615 C   0  0  0  0  0  0  0  0  0  0  0  0
   45.2918   -1.4778   -0.1432 N   0  0  0  0  0  0  0  0  0  0  0  0
   42.1783    2.5886    0.2376 H   0  0  0  0  0  0  0  0  0  0  0  0
   44.0524    4.5014    0.3734 H   0  0  0  0  0  0  0  0  0  0  0  0
   47.7006    4.9714    2.1820 H   0  0  0  0  0  0  0  0  0  0  0  0
   48.1568    6.9477    3.1892 H   0  0  0  0  0  0  0  0  0  0  0  0
   46.2418    9.4055   -0.2776 H   0  0  0  0  0  0  0  0  0  0  0  0
   45.2404    7.3454   -2.3418 H   0  0  0  0  0  0  0  0  0  0  0  0
   45.7086    5.1967   -1.6182 H   0  0  0  0  0  0  0  0  0  0  0  0
   49.3732    4.5456    0.1499 H   0  0  0  0  0  0  0  0  0  0  0  0
   51.2678    2.6501    0.0793 H   0  0  0  0  0  0  0  0  0  0  0  0
   51.2931   -2.6342   -0.0397 H   0  0  0  0  0  0  0  0  0  0  0  0
   49.4188   -4.5442   -0.2074 H   0  0  0  0  0  0  0  0  0  0  0  0
   47.7829   -4.9448   -2.3119 H   0  0  0  0  0  0  0  0  0  0  0  0
   47.7963   -8.4907   -2.6131 H   0  0  0  0  0  0  0  0  0  0  0  0
   45.9264   -9.4692   -0.5605 H   0  0  0  0  0  0  0  0  0  0  0  0
   45.9813   -8.7790    1.4130 H   0  0  0  0  0  0  0  0  0  0  0  0
   45.7711   -5.2582    1.4818 H   0  0  0  0  0  0  0  0  0  0  0  0
   44.1045   -4.5521   -0.5143 H   0  0  0  0  0  0  0  0  0  0  0  0
   42.2078   -2.6624   -0.3627 H   0  0  0  0  0  0  0  0  0  0  0  0
  2  3  4  0  0  0  0
  3  4  1  0  0  0  0
  4  5  2  0  0  0  0
  5  6  4  0  0  0  0
  1  7  1  0  0  0  0
  3  7  4  0  0  0  0
  6  7  4  0  0  0  0
  6  8  4  0  0  0  0
  8  9  1  0  0  0  0
  9 10  4  0  0  0  0
 10 11  4  0  0  0  0
 11 12  1  0  0  0  0
 11 13  4  0  0  0  0
 13 14  1  0  0  0  0
 13 15  4  0  0  0  0
 15 16  1  0  0  0  0
  9 17  4  0  0  0  0
 15 17  4  0  0  0  0
  8 18  4  0  0  0  0
 18 19  4  0  0  0  0
 19 20  2  0  0  0  0
  1 21  1  0  0  0  0
 18 21  4  0  0  0  0
 20 22  4  0  0  0  0
 21 22  4  0  0  0  0
 22 23  4  0  0  0  0
 23 24  4  0  0  0  0
 24 25  4  0  0  0  0
 25 26  2  0  0  0  0
 26 27  4  0  0  0  0
  1 28  1  0  0  0  0
 24 28  4  0  0  0  0
 27 28  4  0  0  0  0
 27 29  4  0  0  0  0
 29 30  1  0  0  0  0
 30 31  4  0  0  0  0
 31 32  4  0  0  0  0
 32 33  1  0  0  0  0
 32 34  4  0  0  0  0
 34 35  1  0  0  0  0
 34 36  4  0  0  0  0
 36 37  1  0  0  0  0
 30 38  4  0  0  0  0
 36 38  4  0  0  0  0
 29 39  4  0  0  0  0
 39 40  4  0  0  0  0
 40 41  2  0  0  0  0
  2 42  4  0  0  0  0
 41 42  1  0  0  0  0
  1 43  1  0  0  0  0
 39 43  4  0  0  0  0
 42 43  4  0  0  0  0
  2 44  1  0  0  0  0
  4 45  1  0  0  0  0
  5 46  1  0  0  0  0
 10 47  1  0  0  0  0
 12 48  1  0  0  0  0
 14 49  1  0  0  0  0
 16 50  1  0  0  0  0
 17 51  1  0  0  0  0
 19 52  1  0  0  0  0
 20 53  1  0  0  0  0
 25 54  1  0  0  0  0
 26 55  1  0  0  0  0
 31 56  1  0  0  0  0
 33 57  1  0  0  0  0
 35 58  1  0  0  0  0
 37 59  1  0  0  0  0
 38 60  1  0  0  0  0
 40 61  1  0  0  0  0
 41 62  1  0  0  0  0
 64 65  4  0  0  0  0
 65 66  1  0  0  0  0
 66 67  2  0  0  0  0
 67 68  4  0  0  0  0
 63 69  1  0  0  0  0
 65 69  4  0  0  0  0
 68 69  4  0  0  0  0
 68 70  4  0  0  0  0
 70 71  1  0  0  0  0
 71 72  4  0  0  0  0
 72 73  4  0  0  0  0
 73 74  1  0  0  0  0
 73 75  4  0  0  0  0
 75 76  1  0  0  0  0
 75 77  4  0  0  0  0
 77 78  1  0  0  0  0
 71 79  4  0  0  0  0
 77 79  4  0  0  0  0
 70 80  4  0  0  0  0
 80 81  4  0  0  0  0
 81 82  2  0  0  0  0
 63 83  1  0  0  0  0
 80 83  4  0  0  0  0
 82 84  4  0  0  0  0
 83 84  4  0  0  0  0
 84 85  4  0  0  0  0
 85 86  4  0  0  0  0
 86 87  4  0  0  0  0
 87 88  2  0  0  0  0
 88 89  4  0  0  0  0
 63 90  1  0  0  0  0
 86 90  4  0  0  0  0
 89 90  4  0  0  0  0
 89 91  4  0  0  0  0
 91 92  1  0  0  0  0
 92 93  4  0  0  0  0
 93 94  4  0  0  0  0
 94 95  1  0  0  0  0
 94 96  4  0  0  0  0
 96 97  1  0  0  0  0
 96 98  4  0  0  0  0
 98 99  1  0  0  0  0
 92100  4  0  0  0  0
 98100  4  0  0  0  0
 91101  4  0  0  0  0
101102  4  0  0  0  0
102103  2  0  0  0  0
 64104  4  0  0  0  0
103104  1  0  0  0  0
 63105  1  0  0  0  0
101105  4  0  0  0  0
104105  4  0  0  0  0
 64106  1  0  0  0  0
 66107  1  0  0  0  0
 67108  1  0  0  0  0
 72109  1  0  0  0  0
 74110  1  0  0  0  0
 76111  1  0  0  0  0
 78112  1  0  0  0  0
 79113  1  0  0  0  0
 81114  1  0  0  0  0
 82115  1  0  0  0  0
 87116  1  0  0  0  0
 88117  1  0  0  0  0
 93118  1  0  0  0  0
 95119  1  0  0  0  0
 97120  1  0  0  0  0
 99121  1  0  0  0  0
100122  1  0  0  0  0
102123  1  0  0  0  0
103124  1  0  0  0  0
 23125  4  0  0  0  0
125126  3  0  0  0  0
126127  4  0  0  0  0
127128  3  0  0  0  0
128129  4  0  0  0  0
129130  3  0  0  0  0
130131  4  0  0  0  0
131132  3  0  0  0  0
133134  3  0  0  0  0
134135  4  0  0  0  0
135136  3  0  0  0  0
136137  4  0  0  0  0
137138  3  0  0  0  0
138139  4  0  0  0  0
 85140  4  0  0  0  0
139140  3  0  0  0  0
132142  4  0  0  0  0
142143  4  0  0  0  0
143144  4  0  0  0  0
144145  2  0  0  0  0
145146  4  0  0  0  0
141147  1  0  0  0  0
143147  4  0  0  0  0
146147  4  0  0  0  0
146148  4  0  0  0  0
148149  1  0  0  0  0
149150  4  0  0  0  0
150151  4  0  0  0  0
151152  1  0  0  0  0
151153  4  0  0  0  0
153154  1  0  0  0  0
153155  4  0  0  0  0
155156  1  0  0  0  0
149157  4  0  0  0  0
155157  4  0  0  0  0
148158  4  0  0  0  0
158159  4  0  0  0  0
159160  2  0  0  0  0
141161  1  0  0  0  0
158161  4  0  0  0  0
160162  4  0  0  0  0
161162  4  0  0  0  0
133163  4  0  0  0  0
162163  4  0  0  0  0
163164  4  0  0  0  0
164165  4  0  0  0  0
165166  2  0  0  0  0
166167  4  0  0  0  0
141168  1  0  0  0  0
164168  4  0  0  0  0
167168  4  0  0  0  0
167169  4  0  0  0  0
169170  1  0  0  0  0
170171  4  0  0  0  0
171172  4  0  0  0  0
172173  1  0  0  0  0
172174  4  0  0  0  0
174175  1  0  0  0  0
174176  4  0  0  0  0
176177  1  0  0  0  0
170178  4  0  0  0  0
176178  4  0  0  0  0
169179  4  0  0  0  0
179180  4  0  0  0  0
180181  2  0  0  0  0
142182  4  0  0  0  0
181182  4  0  0  0  0
141183  1  0  0  0  0
179183  4  0  0  0  0
182183  4  0  0  0  0
144184  1  0  0  0  0
145185  1  0  0  0  0
150186  1  0  0  0  0
152187  1  0  0  0  0
154188  1  0  0  0  0
156189  1  0  0  0  0
157190  1  0  0  0  0
159191  1  0  0  0  0
160192  1  0  0  0  0
165193  1  0  0  0  0
166194  1  0  0  0  0
171195  1  0  0  0  0
173196  1  0  0  0  0
175197  1  0  0  0  0
177198  1  0  0  0  0
178199  1  0  0  0  0
180200  1  0  0  0  0
181201  1  0  0  0  0
M  END
