 xtb: 6.5.1 (b24c23e)
          07302208273D

154173  0     0  0            999 V2000
   14.4875    0.0784    0.0218 Cu  0  0  0  0  0  0  0  0  0  0  0  0
   11.0745    0.1325   -0.0429 C   0  0  0  0  0  0  0  0  0  0  0  0
   11.7094    1.2659    0.4443 C   0  0  0  0  0  0  0  0  0  0  0  0
   11.0384    2.4418    0.9226 C   0  0  0  0  0  0  0  0  0  0  0  0
   12.0002    3.3172    1.3082 C   0  0  0  0  0  0  0  0  0  0  0  0
   13.2677    2.6835    1.0671 C   0  0  0  0  0  0  0  0  0  0  0  0
   13.0601    1.4396    0.5444 N   0  0  0  0  0  0  0  0  0  0  0  0
   14.5104    3.2593    1.3296 C   0  0  0  0  0  0  0  0  0  0  0  0
   14.5231    4.6389    1.8983 C   0  0  0  0  0  0  0  0  0  0  0  0
   14.4795    5.7460    1.0459 C   0  0  0  0  0  0  0  0  0  0  0  0
   14.4173    5.5447   -0.4449 C   0  0  0  0  0  0  0  0  0  0  0  0
   14.4941    7.0261    1.5869 C   0  0  0  0  0  0  0  0  0  0  0  0
   14.5507    7.2198    2.9635 C   0  0  0  0  0  0  0  0  0  0  0  0
   14.5872    8.6116    3.5348 C   0  0  0  0  0  0  0  0  0  0  0  0
   14.5948    6.1111    3.8022 C   0  0  0  0  0  0  0  0  0  0  0  0
   14.5812    4.8218    3.2827 C   0  0  0  0  0  0  0  0  0  0  0  0
   14.6313    3.6268    4.1972 C   0  0  0  0  0  0  0  0  0  0  0  0
   15.7433    2.6497    1.1047 C   0  0  0  0  0  0  0  0  0  0  0  0
   17.0159    3.2556    1.3762 C   0  0  0  0  0  0  0  0  0  0  0  0
   17.9677    2.3524    1.0281 C   0  0  0  0  0  0  0  0  0  0  0  0
   15.9395    1.3929    0.5963 N   0  0  0  0  0  0  0  0  0  0  0  0
   17.2836    1.1912    0.5414 C   0  0  0  0  0  0  0  0  0  0  0  0
   17.9232    0.0270    0.0791 C   0  0  0  0  0  0  0  0  0  0  0  0
   17.2650   -1.1192   -0.4020 C   0  0  0  0  0  0  0  0  0  0  0  0
   17.9300   -2.3009   -0.8653 C   0  0  0  0  0  0  0  0  0  0  0  0
   16.9637   -3.1767   -1.2422 C   0  0  0  0  0  0  0  0  0  0  0  0
   15.7015   -2.5330   -1.0128 C   0  0  0  0  0  0  0  0  0  0  0  0
   15.9181   -1.2814   -0.5000 N   0  0  0  0  0  0  0  0  0  0  0  0
   14.4591   -3.1057   -1.2780 C   0  0  0  0  0  0  0  0  0  0  0  0
   14.4500   -4.4889   -1.8379 C   0  0  0  0  0  0  0  0  0  0  0  0
   14.5294   -4.6830   -3.2205 C   0  0  0  0  0  0  0  0  0  0  0  0
   14.6213   -3.4954   -4.1412 C   0  0  0  0  0  0  0  0  0  0  0  0
   14.5270   -5.9754   -3.7299 C   0  0  0  0  0  0  0  0  0  0  0  0
   14.4476   -7.0778   -2.8834 C   0  0  0  0  0  0  0  0  0  0  0  0
   14.4437   -8.4686   -3.4586 C   0  0  0  0  0  0  0  0  0  0  0  0
   14.3680   -6.8731   -1.5109 C   0  0  0  0  0  0  0  0  0  0  0  0
   14.3687   -5.5880   -0.9792 C   0  0  0  0  0  0  0  0  0  0  0  0
   14.2871   -5.3746    0.5089 C   0  0  0  0  0  0  0  0  0  0  0  0
   13.2263   -2.4904   -1.0626 C   0  0  0  0  0  0  0  0  0  0  0  0
   11.9494   -3.0856   -1.3476 C   0  0  0  0  0  0  0  0  0  0  0  0
   11.0020   -2.1781   -1.0028 C   0  0  0  0  0  0  0  0  0  0  0  0
   11.6914   -1.0213   -0.5045 C   0  0  0  0  0  0  0  0  0  0  0  0
   13.0389   -1.2378   -0.5532 N   0  0  0  0  0  0  0  0  0  0  0  0
    9.9896    0.1495   -0.0636 H   0  0  0  0  0  0  0  0  0  0  0  0
    9.9674    2.5669    0.9547 H   0  0  0  0  0  0  0  0  0  0  0  0
   11.8765    4.3051    1.7227 H   0  0  0  0  0  0  0  0  0  0  0  0
   13.4949    5.0288   -0.7188 H   0  0  0  0  0  0  0  0  0  0  0  0
   15.2550    4.9306   -0.7803 H   0  0  0  0  0  0  0  0  0  0  0  0
   14.4508    6.4997   -0.9685 H   0  0  0  0  0  0  0  0  0  0  0  0
   14.4603    7.8855    0.9251 H   0  0  0  0  0  0  0  0  0  0  0  0
   14.1797    8.6281    4.5459 H   0  0  0  0  0  0  0  0  0  0  0  0
   15.6188    8.9687    3.5779 H   0  0  0  0  0  0  0  0  0  0  0  0
   14.0163    9.3015    2.9127 H   0  0  0  0  0  0  0  0  0  0  0  0
   14.6389    6.2525    4.8772 H   0  0  0  0  0  0  0  0  0  0  0  0
   15.5528    3.0645    4.0329 H   0  0  0  0  0  0  0  0  0  0  0  0
   14.5928    3.9338    5.2419 H   0  0  0  0  0  0  0  0  0  0  0  0
   13.7925    2.9581    3.9958 H   0  0  0  0  0  0  0  0  0  0  0  0
   17.1527    4.2464    1.7790 H   0  0  0  0  0  0  0  0  0  0  0  0
   19.0395    2.4533    1.0911 H   0  0  0  0  0  0  0  0  0  0  0  0
   18.9998   -2.4334   -0.8939 H   0  0  0  0  0  0  0  0  0  0  0  0
   17.0843   -4.1716   -1.6401 H   0  0  0  0  0  0  0  0  0  0  0  0
   13.7807   -2.8193   -3.9745 H   0  0  0  0  0  0  0  0  0  0  0  0
   14.6170   -3.8099   -5.1844 H   0  0  0  0  0  0  0  0  0  0  0  0
   15.5403   -2.9384   -3.9483 H   0  0  0  0  0  0  0  0  0  0  0  0
   14.5894   -6.1273   -4.8026 H   0  0  0  0  0  0  0  0  0  0  0  0
   15.3041   -8.6118   -4.1145 H   0  0  0  0  0  0  0  0  0  0  0  0
   14.4778   -9.2188   -2.6687 H   0  0  0  0  0  0  0  0  0  0  0  0
   13.5401   -8.6291   -4.0502 H   0  0  0  0  0  0  0  0  0  0  0  0
   14.3065   -7.7258   -0.8426 H   0  0  0  0  0  0  0  0  0  0  0  0
   13.3926   -4.8016    0.7610 H   0  0  0  0  0  0  0  0  0  0  0  0
   15.1538   -4.8106    0.8589 H   0  0  0  0  0  0  0  0  0  0  0  0
   14.2522   -6.3266    1.0377 H   0  0  0  0  0  0  0  0  0  0  0  0
   11.8103   -4.0721   -1.7606 H   0  0  0  0  0  0  0  0  0  0  0  0
    9.9295   -2.2696   -1.0743 H   0  0  0  0  0  0  0  0  0  0  0  0
   30.5319   -0.0720   -0.0386 Cu  0  0  0  0  0  0  0  0  0  0  0  0
   33.9450   -0.0664   -0.1217 C   0  0  0  0  0  0  0  0  0  0  0  0
   33.3102   -1.2216   -0.5548 C   0  0  0  0  0  0  0  0  0  0  0  0
   33.9813   -2.4015   -1.0231 C   0  0  0  0  0  0  0  0  0  0  0  0
   33.0195   -3.3000   -1.3514 C   0  0  0  0  0  0  0  0  0  0  0  0
   31.7520   -2.6756   -1.0876 C   0  0  0  0  0  0  0  0  0  0  0  0
   31.9594   -1.4162   -0.6036 N   0  0  0  0  0  0  0  0  0  0  0  0
   30.5092   -3.2725   -1.2977 C   0  0  0  0  0  0  0  0  0  0  0  0
   30.4966   -4.6618   -1.8423 C   0  0  0  0  0  0  0  0  0  0  0  0
   30.5409   -4.8707   -3.2238 C   0  0  0  0  0  0  0  0  0  0  0  0
   30.6038   -3.6934   -4.1603 C   0  0  0  0  0  0  0  0  0  0  0  0
   30.5261   -6.1690   -3.7196 C   0  0  0  0  0  0  0  0  0  0  0  0
   30.4687   -7.2617   -2.8604 C   0  0  0  0  0  0  0  0  0  0  0  0
   30.4321   -8.6616   -3.4116 C   0  0  0  0  0  0  0  0  0  0  0  0
   30.4239   -7.0422   -1.4877 C   0  0  0  0  0  0  0  0  0  0  0  0
   30.4376   -5.7522   -0.9700 C   0  0  0  0  0  0  0  0  0  0  0  0
   30.3865   -5.5229    0.5172 C   0  0  0  0  0  0  0  0  0  0  0  0
   29.2763   -2.6768   -1.0387 C   0  0  0  0  0  0  0  0  0  0  0  0
   28.0038   -3.3017   -1.2631 C   0  0  0  0  0  0  0  0  0  0  0  0
   27.0518   -2.4090   -0.8893 C   0  0  0  0  0  0  0  0  0  0  0  0
   29.0800   -1.4180   -0.5351 N   0  0  0  0  0  0  0  0  0  0  0  0
   27.7358   -1.2343   -0.4358 C   0  0  0  0  0  0  0  0  0  0  0  0
   27.0962   -0.0744    0.0370 C   0  0  0  0  0  0  0  0  0  0  0  0
   27.7543    1.0856    0.4840 C   0  0  0  0  0  0  0  0  0  0  0  0
   27.0892    2.2589    0.9680 C   0  0  0  0  0  0  0  0  0  0  0  0
   28.0554    3.1518    1.3027 C   0  0  0  0  0  0  0  0  0  0  0  0
   29.3177    2.5286    1.0225 C   0  0  0  0  0  0  0  0  0  0  0  0
   29.1012    1.2705    0.5257 N   0  0  0  0  0  0  0  0  0  0  0  0
   30.5601    3.1255    1.2278 C   0  0  0  0  0  0  0  0  0  0  0  0
   30.5691    4.5113    1.7813 C   0  0  0  0  0  0  0  0  0  0  0  0
   30.4896    5.6085    0.9180 C   0  0  0  0  0  0  0  0  0  0  0  0
   30.3978    5.3888   -0.5686 C   0  0  0  0  0  0  0  0  0  0  0  0
   30.4918    6.8937    1.4450 C   0  0  0  0  0  0  0  0  0  0  0  0
   30.5712    7.1032    2.8191 C   0  0  0  0  0  0  0  0  0  0  0  0
   30.5749    8.5051    3.3668 C   0  0  0  0  0  0  0  0  0  0  0  0
   30.6509    6.0054    3.6678 C   0  0  0  0  0  0  0  0  0  0  0  0
   30.6504    4.7100    3.1618 C   0  0  0  0  0  0  0  0  0  0  0  0
   30.7326    3.5257    4.0879 C   0  0  0  0  0  0  0  0  0  0  0  0
   31.7929    2.5324    0.9574 C   0  0  0  0  0  0  0  0  0  0  0  0
   33.0698    3.1593    1.1640 C   0  0  0  0  0  0  0  0  0  0  0  0
   34.0172    2.2655    0.7850 C   0  0  0  0  0  0  0  0  0  0  0  0
   33.3279    1.0858    0.3435 C   0  0  0  0  0  0  0  0  0  0  0  0
   31.9805    1.2758    0.4580 N   0  0  0  0  0  0  0  0  0  0  0  0
   35.0298   -0.0645   -0.1478 H   0  0  0  0  0  0  0  0  0  0  0  0
   35.0523   -2.5142   -1.0857 H   0  0  0  0  0  0  0  0  0  0  0  0
   33.1434   -4.2999   -1.7361 H   0  0  0  0  0  0  0  0  0  0  0  0
   31.5265   -3.1320   -4.0007 H   0  0  0  0  0  0  0  0  0  0  0  0
   29.7665   -3.0175   -3.9773 H   0  0  0  0  0  0  0  0  0  0  0  0
   30.5702   -4.0201   -5.1993 H   0  0  0  0  0  0  0  0  0  0  0  0
   30.5605   -6.3310   -4.7921 H   0  0  0  0  0  0  0  0  0  0  0  0
   30.8391   -9.3735   -2.6933 H   0  0  0  0  0  0  0  0  0  0  0  0
   29.4005   -8.9489   -3.6281 H   0  0  0  0  0  0  0  0  0  0  0  0
   31.0033   -8.7289   -4.3380 H   0  0  0  0  0  0  0  0  0  0  0  0
   30.3792   -7.8884   -0.8098 H   0  0  0  0  0  0  0  0  0  0  0  0
   29.4647   -5.0035    0.7872 H   0  0  0  0  0  0  0  0  0  0  0  0
   30.4247   -6.4677    1.0586 H   0  0  0  0  0  0  0  0  0  0  0  0
   31.2250   -4.9008    0.8354 H   0  0  0  0  0  0  0  0  0  0  0  0
   27.8671   -4.2953   -1.6588 H   0  0  0  0  0  0  0  0  0  0  0  0
   25.9801   -2.5252   -0.9142 H   0  0  0  0  0  0  0  0  0  0  0  0
   26.0194    2.3742    1.0392 H   0  0  0  0  0  0  0  0  0  0  0  0
   27.9348    4.1450    1.7047 H   0  0  0  0  0  0  0  0  0  0  0  0
   31.2378    4.7847   -0.9161 H   0  0  0  0  0  0  0  0  0  0  0  0
   30.4031    6.3380   -1.1037 H   0  0  0  0  0  0  0  0  0  0  0  0
   29.4782    4.8543   -0.8152 H   0  0  0  0  0  0  0  0  0  0  0  0
   30.4293    7.7459    0.7761 H   0  0  0  0  0  0  0  0  0  0  0  0
   29.7144    9.0624    2.9926 H   0  0  0  0  0  0  0  0  0  0  0  0
   30.5406    8.4996    4.4562 H   0  0  0  0  0  0  0  0  0  0  0  0
   31.4784    9.0305    3.0511 H   0  0  0  0  0  0  0  0  0  0  0  0
   30.7126    6.1580    4.7404 H   0  0  0  0  0  0  0  0  0  0  0  0
   31.6278    2.9387    3.8738 H   0  0  0  0  0  0  0  0  0  0  0  0
   29.8667    2.8756    3.9494 H   0  0  0  0  0  0  0  0  0  0  0  0
   30.7664    3.8466    5.1287 H   0  0  0  0  0  0  0  0  0  0  0  0
   33.2087    4.1571    1.5487 H   0  0  0  0  0  0  0  0  0  0  0  0
   35.0897    2.3811    0.7971 H   0  0  0  0  0  0  0  0  0  0  0  0
   23.1237   -0.0496    0.0946 C   0  0  0  0  0  0  0  0  0  0  0  0
   21.8958   -0.0313    0.1019 C   0  0  0  0  0  0  0  0  0  0  0  0
   20.5515   -0.0121    0.1027 C   0  0  0  0  0  0  0  0  0  0  0  0
   19.3281    0.0076    0.0956 C   0  0  0  0  0  0  0  0  0  0  0  0
   24.4679   -0.0615    0.0817 C   0  0  0  0  0  0  0  0  0  0  0  0
   25.6913   -0.0715    0.0624 C   0  0  0  0  0  0  0  0  0  0  0  0
  2  3  4  0  0  0  0
  3  4  1  0  0  0  0
  4  5  2  0  0  0  0
  5  6  4  0  0  0  0
  1  7  1  0  0  0  0
  3  7  4  0  0  0  0
  6  7  4  0  0  0  0
  6  8  4  0  0  0  0
  8  9  1  0  0  0  0
  9 10  4  0  0  0  0
 10 11  1  0  0  0  0
 10 12  4  0  0  0  0
 12 13  4  0  0  0  0
 13 14  1  0  0  0  0
 13 15  4  0  0  0  0
  9 16  4  0  0  0  0
 15 16  4  0  0  0  0
 16 17  1  0  0  0  0
  8 18  4  0  0  0  0
 18 19  4  0  0  0  0
 19 20  2  0  0  0  0
  1 21  1  0  0  0  0
 18 21  4  0  0  0  0
 20 22  4  0  0  0  0
 21 22  4  0  0  0  0
 22 23  4  0  0  0  0
 23 24  4  0  0  0  0
 24 25  4  0  0  0  0
 25 26  2  0  0  0  0
 26 27  4  0  0  0  0
  1 28  1  0  0  0  0
 24 28  4  0  0  0  0
 27 28  4  0  0  0  0
 27 29  4  0  0  0  0
 29 30  1  0  0  0  0
 30 31  4  0  0  0  0
 31 32  1  0  0  0  0
 31 33  4  0  0  0  0
 33 34  4  0  0  0  0
 34 35  1  0  0  0  0
 34 36  4  0  0  0  0
 30 37  4  0  0  0  0
 36 37  4  0  0  0  0
 37 38  1  0  0  0  0
 29 39  4  0  0  0  0
 39 40  4  0  0  0  0
 40 41  2  0  0  0  0
  2 42  4  0  0  0  0
 41 42  1  0  0  0  0
  1 43  1  0  0  0  0
 39 43  4  0  0  0  0
 42 43  4  0  0  0  0
  2 44  1  0  0  0  0
  4 45  1  0  0  0  0
  5 46  1  0  0  0  0
 11 47  1  0  0  0  0
 11 48  1  0  0  0  0
 11 49  1  0  0  0  0
 12 50  1  0  0  0  0
 14 51  1  0  0  0  0
 14 52  1  0  0  0  0
 14 53  1  0  0  0  0
 15 54  1  0  0  0  0
 17 55  1  0  0  0  0
 17 56  1  0  0  0  0
 17 57  1  0  0  0  0
 19 58  1  0  0  0  0
 20 59  1  0  0  0  0
 25 60  1  0  0  0  0
 26 61  1  0  0  0  0
 32 62  1  0  0  0  0
 32 63  1  0  0  0  0
 32 64  1  0  0  0  0
 33 65  1  0  0  0  0
 35 66  1  0  0  0  0
 35 67  1  0  0  0  0
 35 68  1  0  0  0  0
 36 69  1  0  0  0  0
 38 70  1  0  0  0  0
 38 71  1  0  0  0  0
 38 72  1  0  0  0  0
 40 73  1  0  0  0  0
 41 74  1  0  0  0  0
 76 77  4  0  0  0  0
 77 78  1  0  0  0  0
 78 79  2  0  0  0  0
 79 80  4  0  0  0  0
 75 81  1  0  0  0  0
 77 81  4  0  0  0  0
 80 81  4  0  0  0  0
 80 82  4  0  0  0  0
 82 83  1  0  0  0  0
 83 84  4  0  0  0  0
 84 85  1  0  0  0  0
 84 86  4  0  0  0  0
 86 87  4  0  0  0  0
 87 88  1  0  0  0  0
 87 89  4  0  0  0  0
 83 90  4  0  0  0  0
 89 90  4  0  0  0  0
 90 91  1  0  0  0  0
 82 92  4  0  0  0  0
 92 93  4  0  0  0  0
 93 94  2  0  0  0  0
 75 95  1  0  0  0  0
 92 95  4  0  0  0  0
 94 96  4  0  0  0  0
 95 96  4  0  0  0  0
 96 97  4  0  0  0  0
 97 98  4  0  0  0  0
 98 99  4  0  0  0  0
 99100  2  0  0  0  0
100101  4  0  0  0  0
 75102  1  0  0  0  0
 98102  4  0  0  0  0
101102  4  0  0  0  0
101103  4  0  0  0  0
103104  1  0  0  0  0
104105  4  0  0  0  0
105106  1  0  0  0  0
105107  4  0  0  0  0
107108  4  0  0  0  0
108109  1  0  0  0  0
108110  4  0  0  0  0
104111  4  0  0  0  0
110111  4  0  0  0  0
111112  1  0  0  0  0
103113  4  0  0  0  0
113114  4  0  0  0  0
114115  2  0  0  0  0
 76116  4  0  0  0  0
115116  1  0  0  0  0
 75117  1  0  0  0  0
113117  4  0  0  0  0
116117  4  0  0  0  0
 76118  1  0  0  0  0
 78119  1  0  0  0  0
 79120  1  0  0  0  0
 85121  1  0  0  0  0
 85122  1  0  0  0  0
 85123  1  0  0  0  0
 86124  1  0  0  0  0
 88125  1  0  0  0  0
 88126  1  0  0  0  0
 88127  1  0  0  0  0
 89128  1  0  0  0  0
 91129  1  0  0  0  0
 91130  1  0  0  0  0
 91131  1  0  0  0  0
 93132  1  0  0  0  0
 94133  1  0  0  0  0
 99134  1  0  0  0  0
100135  1  0  0  0  0
106136  1  0  0  0  0
106137  1  0  0  0  0
106138  1  0  0  0  0
107139  1  0  0  0  0
109140  1  0  0  0  0
109141  1  0  0  0  0
109142  1  0  0  0  0
110143  1  0  0  0  0
112144  1  0  0  0  0
112145  1  0  0  0  0
112146  1  0  0  0  0
114147  1  0  0  0  0
115148  1  0  0  0  0
149150  3  0  0  0  0
150151  4  0  0  0  0
 23152  4  0  0  0  0
151152  3  0  0  0  0
149153  4  0  0  0  0
 97154  4  0  0  0  0
153154  3  0  0  0  0
M  END
