356

C 56.347762 -0.017409 -0.014676
C 57.075717 1.358199 0.081300
C 56.467963 2.592724 0.062850
C 57.490322 3.561756 0.235089
C 58.687533 2.884079 0.361035
N 58.428259 1.544760 0.211673
C 60.109090 3.520693 0.653010
C 60.145863 4.935209 1.085552
C 60.433238 5.946984 0.170897
C 60.444782 7.254468 0.624615
N 60.190729 7.618969 1.903500
C 59.916525 6.610458 2.764516
C 59.881110 5.272685 2.411241
C 61.240299 2.772213 0.553997
C 62.544640 3.309344 0.884704
C 63.447505 2.349947 0.718862
N 61.437155 1.468678 0.182801
C 62.768830 1.153379 0.261962
C 63.436753 -0.001441 -0.000750
C 62.657288 -1.279959 -0.524876
C 63.191840 -2.312989 -1.269542
C 62.166373 -3.270475 -1.470087
C 61.032168 -2.790246 -0.850773
N 61.325940 -1.553686 -0.326542
C 59.626264 -3.519067 -0.773420
C 59.601753 -4.989712 -0.917720
C 59.998372 -5.804791 0.140068
C 59.973083 -7.176301 -0.045847
N 59.588763 -7.783025 -1.193806
C 59.210828 -6.961050 -2.200732
C 59.201814 -5.579619 -2.115903
C 58.499855 -2.791592 -0.558107
C 57.180642 -3.391326 -0.459142
C 56.294214 -2.420034 -0.261587
C 57.012981 -1.170597 -0.213783
N 58.333054 -1.445883 -0.387985
H 55.271053 -0.031477 0.105285
H 55.409712 2.774598 -0.044972
H 57.361463 4.632399 0.287162
H 59.128513 0.807165 0.202902
H 60.645467 5.703955 -0.864682
H 60.667247 8.070542 -0.054983
H 59.717615 6.914392 3.786993
H 59.656611 4.499995 3.138599
H 62.758240 4.307972 1.221750
H 64.501123 2.465400 0.896548
H 64.210383 -2.379960 -1.620724
H 62.248915 -4.206642 -2.001472
H 60.646230 -0.922436 0.089658
H 60.315640 -5.366919 1.080330
H 60.273304 -7.844880 0.754346
H 58.902938 -7.458059 -3.114766
H 58.889186 -4.962326 -2.951359
H 56.951864 -4.439454 -0.528642
H 55.232153 -2.538879 -0.145639
C 143.461864 0.019131 -0.005816
C 142.733909 -1.247672 -0.550535
C 143.341663 -2.336652 -1.132356
C 142.319305 -3.276959 -1.423067
C 141.122093 -2.732222 -1.000727
N 141.381367 -1.473227 -0.520086
C 139.700536 -3.431865 -1.032749
C 139.663763 -4.887405 -1.296098
C 139.376388 -5.367904 -2.572578
C 139.364844 -6.737997 -2.768081
N 139.618897 -7.647756 -1.798161
C 139.893101 -7.145592 -0.570858
C 139.928517 -5.794578 -0.272194
C 138.569327 -2.721156 -0.777959
C 137.264987 -3.350105 -0.729986
C 136.362121 -2.421293 -0.438001
N 138.372471 -1.392370 -0.510906
C 137.040797 -1.148341 -0.296127
C 136.372874 -0.001441 -0.000750
C 137.152338 1.375149 0.118898
C 136.617787 2.634521 -0.069939
C 137.643253 3.577528 0.190321
C 138.777458 2.866979 0.520912
N 138.483686 1.527640 0.420575
C 140.183362 3.479436 0.923479
C 140.207873 4.852855 1.468768
C 139.811254 5.092946 2.782399
C 139.836543 6.397299 3.245289
N 140.220863 7.462417 2.502695
C 140.598798 7.192901 1.231119
C 140.607812 5.926027 0.673825
C 141.309771 2.734134 0.781693
C 142.628985 3.221940 1.144350
C 143.515413 2.268030 0.875109
C 142.796646 1.135449 0.345354
N 141.476572 1.459950 0.316581
H 144.538573 -0.023306 0.107266
H 144.399914 -2.448945 -1.311504
H 142.448163 -4.252555 -1.867137
H 140.681113 -0.813525 -0.190060
H 139.164159 -4.677562 -3.381847
H 139.142379 -7.152185 -3.745977
H 140.092011 -7.884074 0.198868
H 140.153015 -5.440830 0.728287
H 137.051386 -4.392203 -0.887746
H 135.308504 -2.605305 -0.332926
H 135.599244 2.854898 -0.351449
H 137.560711 4.653111 0.146717
H 139.163396 0.775868 0.501439
H 139.493986 4.273054 3.417696
H 139.536322 6.625138 4.262833
H 140.906688 8.053350 0.646223
H 140.920440 5.759929 -0.351577
H 142.857763 4.185504 1.562617
H 144.577473 2.320571 1.032612
C 69.544550 -0.000571 0.007804
C 68.335611 -0.014026 -0.000644
C 66.914082 -0.005207 -0.012627
C 65.702412 0.002232 -0.001764
C 70.961155 -0.007246 0.008337
C 72.181850 0.002232 -0.001764
C 85.026561 -0.000571 0.007804
C 83.817622 -0.014026 -0.000644
C 82.396093 -0.005207 -0.012627
C 81.184423 0.002232 -0.001764
C 86.443166 -0.007246 0.008337
C 87.663861 0.002232 -0.001764
C 100.508572 -0.000571 0.007804
C 99.299633 -0.014026 -0.000644
C 97.878104 -0.005207 -0.012627
C 96.666434 0.002232 -0.001764
C 101.925177 -0.007246 0.008337
C 103.145872 0.002232 -0.001764
C 115.990583 -0.000571 0.007804
C 114.781644 -0.014026 -0.000644
C 113.360115 -0.005207 -0.012627
C 112.148445 0.002232 -0.001764
C 117.407188 -0.007246 0.008337
C 118.627883 0.002232 -0.001764
C 131.472594 -0.000571 0.007804
C 130.263655 -0.014026 -0.000644
C 128.842126 -0.005207 -0.012627
C 127.630456 0.002232 -0.001764
C 132.889199 -0.007246 0.008337
C 134.109894 0.002232 -0.001764
C 73.101844 0.000424 0.000627
C 73.897625 -1.245075 0.571739
C 73.397230 -2.240433 1.384258
C 74.435431 -3.186276 1.585002
C 75.538915 -2.735573 0.891424
N 75.223689 -1.518009 0.344113
C 76.927486 -3.481076 0.745439
C 76.920131 -4.957750 0.823540
C 77.337782 -5.608638 1.983685
C 77.296488 -6.992037 2.009616
N 76.871975 -7.760321 0.979016
C 76.472593 -7.095406 -0.130905
C 76.475919 -5.716591 -0.256804
C 78.063072 -2.771781 0.516211
C 79.350088 -3.407866 0.322313
C 80.258672 -2.460031 0.118327
N 78.271288 -1.425677 0.404532
C 79.596439 -1.172668 0.171193
C 80.260151 0.000424 0.000627
C 79.463031 1.366902 0.069639
C 79.956032 2.590273 0.473232
C 78.918195 3.542299 0.303659
C 77.822122 2.867991 -0.191154
N 78.140528 1.534952 -0.257800
C 76.436939 3.504971 -0.611250
C 76.448700 4.898526 -1.104539
C 76.052767 5.947768 -0.277332
C 76.095715 7.234251 -0.785793
N 76.501686 7.544300 -2.038897
C 76.880569 6.501161 -2.814255
C 76.874504 5.180296 -2.400600
C 75.300261 2.763404 -0.555808
C 74.014095 3.281958 -0.973913
C 73.104830 2.327661 -0.807721
C 73.765956 1.152712 -0.276995
N 75.090556 1.474395 -0.152884
H 72.393824 -2.292693 1.774076
H 74.378131 -4.099814 2.154456
H 75.882582 -0.893112 -0.113320
H 77.687550 -5.036080 2.836357
H 77.614035 -7.535007 2.893037
H 76.135321 -7.721692 -0.950710
H 76.144894 -5.231481 -1.168235
H 79.547275 -4.465116 0.329673
H 81.303678 -2.638299 -0.058037
H 80.955719 2.782309 0.830873
H 78.970950 4.601887 0.503173
H 77.486513 0.785863 -0.464988
H 75.717962 5.749285 0.734931
H 75.793629 8.077992 -0.174327
H 77.202637 6.761515 -3.816718
H 77.188706 4.379247 -3.060756
H 73.817854 4.265784 -1.361610
H 72.059744 2.428419 -1.036981
C 88.583855 0.000424 0.000627
C 89.379636 -1.245075 0.571739
C 88.879241 -2.240433 1.384258
C 89.917442 -3.186276 1.585002
C 91.020926 -2.735573 0.891424
N 90.705700 -1.518009 0.344113
C 92.409497 -3.481076 0.745439
C 92.402141 -4.957750 0.823540
C 92.819793 -5.608638 1.983685
C 92.778499 -6.992037 2.009616
N 92.353986 -7.760321 0.979016
C 91.954604 -7.095406 -0.130905
C 91.957930 -5.716591 -0.256804
C 93.545083 -2.771781 0.516211
C 94.832099 -3.407866 0.322313
C 95.740683 -2.460031 0.118327
N 93.753299 -1.425677 0.404532
C 95.078450 -1.172668 0.171193
C 95.742162 0.000424 0.000627
C 94.945042 1.366902 0.069639
C 95.438043 2.590273 0.473232
C 94.400206 3.542299 0.303659
C 93.304133 2.867991 -0.191154
N 93.622539 1.534952 -0.257800
C 91.918950 3.504971 -0.611250
C 91.930711 4.898526 -1.104539
C 91.534778 5.947768 -0.277332
C 91.577726 7.234251 -0.785793
N 91.983697 7.544300 -2.038897
C 92.362580 6.501161 -2.814255
C 92.356515 5.180296 -2.400600
C 90.782272 2.763404 -0.555808
C 89.496106 3.281958 -0.973913
C 88.586840 2.327661 -0.807721
C 89.247967 1.152712 -0.276995
N 90.572567 1.474395 -0.152884
H 87.875835 -2.292693 1.774076
H 89.860142 -4.099814 2.154456
H 91.364593 -0.893112 -0.113320
H 93.169561 -5.036080 2.836357
H 93.096046 -7.535007 2.893037
H 91.617332 -7.721692 -0.950710
H 91.626905 -5.231481 -1.168235
H 95.029286 -4.465116 0.329673
H 96.785689 -2.638299 -0.058037
H 96.437730 2.782309 0.830873
H 94.452961 4.601887 0.503173
H 92.968524 0.785863 -0.464988
H 91.199973 5.749285 0.734931
H 91.275640 8.077992 -0.174327
H 92.684648 6.761515 -3.816718
H 92.670717 4.379247 -3.060756
H 89.299865 4.265784 -1.361610
H 87.541755 2.428419 -1.036981
C 104.065866 0.000424 0.000627
C 104.861646 -1.245075 0.571739
C 104.361252 -2.240433 1.384258
C 105.399453 -3.186276 1.585002
C 106.502937 -2.735573 0.891424
N 106.187711 -1.518009 0.344113
C 107.891508 -3.481076 0.745439
C 107.884152 -4.957750 0.823540
C 108.301804 -5.608638 1.983685
C 108.260510 -6.992037 2.009616
N 107.835997 -7.760321 0.979016
C 107.436615 -7.095406 -0.130905
C 107.439941 -5.716591 -0.256804
C 109.027094 -2.771781 0.516211
C 110.314110 -3.407866 0.322313
C 111.222694 -2.460031 0.118327
N 109.235310 -1.425677 0.404532
C 110.560461 -1.172668 0.171193
C 111.224173 0.000424 0.000627
C 110.427053 1.366902 0.069639
C 110.920054 2.590273 0.473232
C 109.882217 3.542299 0.303659
C 108.786144 2.867991 -0.191154
N 109.104550 1.534952 -0.257800
C 107.400961 3.504971 -0.611250
C 107.412722 4.898526 -1.104539
C 107.016789 5.947768 -0.277332
C 107.059737 7.234251 -0.785793
N 107.465708 7.544300 -2.038897
C 107.844591 6.501161 -2.814255
C 107.838526 5.180296 -2.400600
C 106.264283 2.763404 -0.555808
C 104.978117 3.281958 -0.973913
C 104.068851 2.327661 -0.807721
C 104.729978 1.152712 -0.276995
N 106.054578 1.474395 -0.152884
H 103.357846 -2.292693 1.774076
H 105.342153 -4.099814 2.154456
H 106.846604 -0.893112 -0.113320
H 108.651572 -5.036080 2.836357
H 108.578057 -7.535007 2.893037
H 107.099343 -7.721692 -0.950710
H 107.108916 -5.231481 -1.168235
H 110.511297 -4.465116 0.329673
H 112.267700 -2.638299 -0.058037
H 111.919741 2.782309 0.830873
H 109.934972 4.601887 0.503173
H 108.450535 0.785863 -0.464988
H 106.681984 5.749285 0.734931
H 106.757651 8.077992 -0.174327
H 108.166659 6.761515 -3.816718
H 108.152728 4.379247 -3.060756
H 104.781876 4.265784 -1.361610
H 103.023766 2.428419 -1.036981
C 119.547877 0.000424 0.000627
C 120.343657 -1.245075 0.571739
C 119.843263 -2.240433 1.384258
C 120.881464 -3.186276 1.585002
C 121.984948 -2.735573 0.891424
N 121.669722 -1.518009 0.344113
C 123.373519 -3.481076 0.745439
C 123.366163 -4.957750 0.823540
C 123.783815 -5.608638 1.983685
C 123.742521 -6.992037 2.009616
N 123.318008 -7.760321 0.979016
C 122.918626 -7.095406 -0.130905
C 122.921952 -5.716591 -0.256804
C 124.509105 -2.771781 0.516211
C 125.796121 -3.407866 0.322313
C 126.704705 -2.460031 0.118327
N 124.717321 -1.425677 0.404532
C 126.042472 -1.172668 0.171193
C 126.706184 0.000424 0.000627
C 125.909064 1.366902 0.069639
C 126.402065 2.590273 0.473232
C 125.364228 3.542299 0.303659
C 124.268155 2.867991 -0.191154
N 124.586561 1.534952 -0.257800
C 122.882972 3.504971 -0.611250
C 122.894733 4.898526 -1.104539
C 122.498800 5.947768 -0.277332
C 122.541748 7.234251 -0.785793
N 122.947719 7.544300 -2.038897
C 123.326602 6.501161 -2.814255
C 123.320537 5.180296 -2.400600
C 121.746294 2.763404 -0.555808
C 120.460128 3.281958 -0.973913
C 119.550862 2.327661 -0.807721
C 120.211989 1.152712 -0.276995
N 121.536589 1.474395 -0.152884
H 118.839857 -2.292693 1.774076
H 120.824164 -4.099814 2.154456
H 122.328615 -0.893112 -0.113320
H 124.133583 -5.036080 2.836357
H 124.060068 -7.535007 2.893037
H 122.581354 -7.721692 -0.950710
H 122.590927 -5.231481 -1.168235
H 125.993308 -4.465116 0.329673
H 127.749711 -2.638299 -0.058037
H 127.401752 2.782309 0.830873
H 125.416983 4.601887 0.503173
H 123.932546 0.785863 -0.464988
H 122.163995 5.749285 0.734931
H 122.239662 8.077992 -0.174327
H 123.648669 6.761515 -3.816718
H 123.634739 4.379247 -3.060756
H 120.263887 4.265784 -1.361610
H 118.505777 2.428419 -1.036981
