206

C 22.161214 -0.001659 0.000017
C 22.895648 -1.378817 -0.071869
C 22.308502 -2.622481 -0.136786
C 23.360421 -3.578379 -0.186687
C 24.548873 -2.881194 -0.150298
N 24.257180 -1.545515 -0.080571
C 25.980228 -3.499516 -0.182584
C 27.102790 -2.754709 -0.143701
C 28.387776 -3.407175 -0.177771
C 29.325059 -2.465947 -0.128633
N 27.324621 -1.412492 -0.073625
C 28.673999 -1.168079 -0.060872
C 29.370761 -0.000327 0.000088
C 28.596095 1.391960 0.072775
C 29.159674 2.652499 0.138589
C 28.101650 3.596657 0.187878
C 26.923739 2.886728 0.150805
N 27.229087 1.549592 0.080997
C 25.490942 3.511290 0.183403
C 24.373421 2.761682 0.144269
C 23.069652 3.386403 0.176874
C 22.153169 2.422350 0.126549
C 22.847224 1.156713 0.060485
N 24.183305 1.417939 0.074125
H 21.078498 0.006558 0.000443
H 21.247826 -2.820148 -0.147103
H 23.261156 -4.651442 -0.242703
H 24.937205 -0.789476 -0.041109
H 26.058271 -4.578949 -0.238942
H 28.552736 -4.468090 -0.233162
H 30.383098 -2.653345 -0.138421
H 30.215048 2.877275 0.150329
H 28.190077 4.670753 0.243955
H 26.550384 0.791750 0.041431
H 25.409710 4.590169 0.239721
H 22.883677 4.443559 0.232056
H 21.086287 2.551750 0.133299
C 95.689756 0.000984 -0.000153
C 94.955322 1.357521 -0.248228
C 95.542468 2.582562 -0.472255
C 94.490549 3.524146 -0.644451
C 93.302097 2.837400 -0.518867
N 93.593790 1.521722 -0.278257
C 91.870742 3.446461 -0.630258
C 90.748180 2.712808 -0.496087
C 89.463194 3.355503 -0.613631
C 88.525911 2.428369 -0.444076
N 90.526349 1.390692 -0.254292
C 89.176971 1.149938 -0.210270
C 88.480209 -0.000327 0.000088
C 89.254875 -1.371765 0.250900
C 88.691296 -2.613427 0.477983
C 89.749320 -3.543446 0.648063
C 90.927231 -2.844149 0.520165
N 90.621883 -1.527037 0.279288
C 92.360028 -3.459359 0.632667
C 93.477549 -2.720977 0.497631
C 94.781318 -3.336344 0.610161
C 95.697801 -2.386727 0.436498
C 95.003746 -1.140042 0.208513
N 93.667665 -1.397356 0.255573
H 96.772472 -0.007110 0.001324
H 96.603144 2.777269 -0.507861
H 94.589814 4.581140 -0.837751
H 92.913765 0.777004 -0.142070
H 91.792699 4.509729 -0.824715
H 89.298234 4.400529 -0.804752
H 87.467872 2.612961 -0.477839
H 87.635922 -2.834836 0.518479
H 89.660893 -4.601457 0.841557
H 91.300586 -0.780544 0.142767
H 92.441260 -4.522084 0.827013
H 94.967293 -4.377670 0.800592
H 96.764683 -2.514190 0.459803
C 36.042317 -0.000321 0.008880
C 34.833378 -0.013776 0.000433
C 33.411849 -0.004956 -0.011550
C 32.200180 0.002482 -0.000687
C 37.458922 -0.006996 0.009413
C 38.679618 0.002482 -0.000687
C 51.700058 -0.000321 0.008880
C 50.491119 -0.013776 0.000433
C 49.069590 -0.004956 -0.011550
C 47.857921 0.002482 -0.000687
C 53.116663 -0.006996 0.009413
C 54.337359 0.002482 -0.000687
C 67.357800 -0.000321 0.008880
C 66.148860 -0.013776 0.000433
C 64.727331 -0.004956 -0.011550
C 63.515662 0.002482 -0.000687
C 68.774404 -0.006996 0.009413
C 69.995100 0.002482 -0.000687
C 83.015541 -0.000321 0.008880
C 81.806601 -0.013776 0.000433
C 80.385072 -0.004956 -0.011550
C 79.173403 0.002482 -0.000687
C 84.432145 -0.006996 0.009413
C 85.652841 0.002482 -0.000687
C 39.613048 -0.000327 0.000092
C 40.393088 1.387208 -0.017233
C 39.840983 2.653309 -0.033056
C 40.909600 3.585933 -0.044688
C 42.080508 2.862305 -0.035629
N 41.761815 1.529278 -0.018987
C 43.512880 3.476972 -0.043276
C 44.638505 2.738920 -0.034068
C 45.918802 3.402317 -0.042321
C 46.863253 2.467345 -0.030660
N 44.868494 1.398429 -0.017361
C 46.220226 1.164875 -0.014436
C 46.922440 -0.000327 0.000092
C 46.142400 -1.387863 0.017374
C 46.694505 -2.653966 0.033110
C 45.625888 -3.586589 0.044746
C 44.454980 -2.862960 0.035774
N 44.773673 -1.529932 0.019171
C 43.022608 -3.477627 0.043466
C 41.896984 -2.739574 0.034264
C 40.616686 -3.402971 0.042562
C 39.672235 -2.467999 0.030899
C 40.315261 -1.165529 0.014631
N 41.666994 -1.399083 0.017531
H 38.787780 2.888531 -0.036011
H 40.832970 4.662433 -0.058136
H 42.426628 0.758669 -0.009360
H 43.589768 4.558311 -0.056750
H 46.075949 4.465862 -0.055574
H 47.920146 2.661548 -0.033069
H 47.747707 -2.889189 0.036004
H 45.702517 -4.663090 0.058139
H 44.108860 -0.759322 0.009587
H 42.945720 -4.558965 0.056968
H 40.459540 -4.466515 0.055843
H 38.615341 -2.662202 0.033336
C 55.270789 -0.000327 0.000092
C 56.050829 1.387208 -0.017233
C 55.498724 2.653309 -0.033056
C 56.567341 3.585933 -0.044688
C 57.738249 2.862305 -0.035629
N 57.419556 1.529278 -0.018987
C 59.170621 3.476972 -0.043276
C 60.296246 2.738920 -0.034068
C 61.576543 3.402317 -0.042321
C 62.520994 2.467345 -0.030660
N 60.526235 1.398429 -0.017361
C 61.877967 1.164875 -0.014436
C 62.580181 -0.000327 0.000092
C 61.800141 -1.387863 0.017374
C 62.352246 -2.653966 0.033110
C 61.283629 -3.586589 0.044746
C 60.112721 -2.862960 0.035774
N 60.431414 -1.529932 0.019171
C 58.680349 -3.477627 0.043466
C 57.554725 -2.739574 0.034264
C 56.274427 -3.402971 0.042562
C 55.329976 -2.467999 0.030899
C 55.973003 -1.165529 0.014631
N 57.324735 -1.399083 0.017531
H 54.445521 2.888531 -0.036011
H 56.490711 4.662433 -0.058136
H 58.084369 0.758669 -0.009360
H 59.247509 4.558311 -0.056750
H 61.733690 4.465862 -0.055574
H 63.577888 2.661548 -0.033069
H 63.405449 -2.889189 0.036004
H 61.360258 -4.663090 0.058139
H 59.766601 -0.759322 0.009587
H 58.603461 -4.558965 0.056968
H 56.117281 -4.466515 0.055843
H 54.273082 -2.662202 0.033336
C 70.928530 -0.000327 0.000092
C 71.708570 1.387208 -0.017233
C 71.156465 2.653309 -0.033056
C 72.225082 3.585933 -0.044688
C 73.395990 2.862305 -0.035629
N 73.077297 1.529278 -0.018987
C 74.828362 3.476972 -0.043276
C 75.953987 2.738920 -0.034068
C 77.234285 3.402317 -0.042321
C 78.178735 2.467345 -0.030660
N 76.183977 1.398429 -0.017361
C 77.535708 1.164875 -0.014436
C 78.237922 -0.000327 0.000092
C 77.457882 -1.387863 0.017374
C 78.009987 -2.653966 0.033110
C 76.941370 -3.586589 0.044746
C 75.770462 -2.862960 0.035774
N 76.089156 -1.529932 0.019171
C 74.338091 -3.477627 0.043466
C 73.212466 -2.739574 0.034264
C 71.932168 -3.402971 0.042562
C 70.987717 -2.467999 0.030899
C 71.630744 -1.165529 0.014631
N 72.982476 -1.399083 0.017531
H 70.103262 2.888531 -0.036011
H 72.148452 4.662433 -0.058136
H 73.742110 0.758669 -0.009360
H 74.905250 4.558311 -0.056750
H 77.391431 4.465862 -0.055574
H 79.235629 2.661548 -0.033069
H 79.063190 -2.889189 0.036004
H 77.017999 -4.663090 0.058139
H 75.424342 -0.759322 0.009587
H 74.261202 -4.558965 0.056968
H 71.775022 -4.466515 0.055843
H 69.930824 -2.662202 0.033336
