 xtb: 6.5.1 (b24c23e)
          07302205433D

118137  0     0  0            999 V2000
   12.7695   -0.0412   -0.0242 Ni  0  0  0  0  0  0  0  0  0  0  0  0
    9.3764   -0.0627   -0.0570 C   0  0  0  0  0  0  0  0  0  0  0  0
   10.0328   -1.2620   -0.2384 C   0  0  0  0  0  0  0  0  0  0  0  0
    9.3582   -2.5099   -0.4277 C   0  0  0  0  0  0  0  0  0  0  0  0
   10.3144   -3.4671   -0.4588 C   0  0  0  0  0  0  0  0  0  0  0  0
   11.5740   -2.8017   -0.2976 C   0  0  0  0  0  0  0  0  0  0  0  0
   11.3917   -1.4461   -0.1809 N   0  0  0  0  0  0  0  0  0  0  0  0
   12.7882   -3.4651   -0.1832 C   0  0  0  0  0  0  0  0  0  0  0  0
   13.9951   -2.8004   -0.0187 C   0  0  0  0  0  0  0  0  0  0  0  0
   15.2601   -3.4650    0.0681 C   0  0  0  0  0  0  0  0  0  0  0  0
   16.2085   -2.4986    0.1002 C   0  0  0  0  0  0  0  0  0  0  0  0
   14.1682   -1.4342   -0.0224 N   0  0  0  0  0  0  0  0  0  0  0  0
   15.5219   -1.2481    0.0296 C   0  0  0  0  0  0  0  0  0  0  0  0
   16.1826   -0.0189   -0.0466 C   0  0  0  0  0  0  0  0  0  0  0  0
   15.5034    1.2015   -0.0972 C   0  0  0  0  0  0  0  0  0  0  0  0
   16.1694    2.4612   -0.1921 C   0  0  0  0  0  0  0  0  0  0  0  0
   15.2095    3.4144   -0.1213 C   0  0  0  0  0  0  0  0  0  0  0  0
   13.9593    2.7325    0.0234 C   0  0  0  0  0  0  0  0  0  0  0  0
   12.7434    3.3807    0.1938 C   0  0  0  0  0  0  0  0  0  0  0  0
   12.7362    4.8603    0.2966 C   0  0  0  0  0  0  0  0  0  0  0  0
   12.0672    5.6332   -0.6532 C   0  0  0  0  0  0  0  0  0  0  0  0
   12.0655    7.0166   -0.5554 C   0  0  0  0  0  0  0  0  0  0  0  0
   12.7263    7.6434    0.4923 C   0  0  0  0  0  0  0  0  0  0  0  0
   13.3925    6.8809    1.4421 C   0  0  0  0  0  0  0  0  0  0  0  0
   13.4008    5.4976    1.3451 C   0  0  0  0  0  0  0  0  0  0  0  0
   11.5350    2.6999    0.2652 C   0  0  0  0  0  0  0  0  0  0  0  0
   10.2677    3.3395    0.4658 C   0  0  0  0  0  0  0  0  0  0  0  0
    9.3232    2.3735    0.3818 C   0  0  0  0  0  0  0  0  0  0  0  0
   10.0147    1.1431    0.1464 C   0  0  0  0  0  0  0  0  0  0  0  0
   11.3715    1.3461    0.1072 N   0  0  0  0  0  0  0  0  0  0  0  0
   14.1496    1.3690    0.0014 N   0  0  0  0  0  0  0  0  0  0  0  0
   12.7976   -4.9486   -0.2462 C   0  0  0  0  0  0  0  0  0  0  0  0
   12.4734   -5.6057   -1.4330 C   0  0  0  0  0  0  0  0  0  0  0  0
   12.4872   -6.9914   -1.4918 C   0  0  0  0  0  0  0  0  0  0  0  0
   12.8191   -7.7344   -0.3671 C   0  0  0  0  0  0  0  0  0  0  0  0
   13.1400   -7.0865    0.8180 C   0  0  0  0  0  0  0  0  0  0  0  0
   13.1326   -5.7008    0.8795 C   0  0  0  0  0  0  0  0  0  0  0  0
    8.2926   -0.0698   -0.0635 H   0  0  0  0  0  0  0  0  0  0  0  0
    8.2885   -2.6196   -0.5098 H   0  0  0  0  0  0  0  0  0  0  0  0
   10.1915   -4.5325   -0.5671 H   0  0  0  0  0  0  0  0  0  0  0  0
   15.3946   -4.5341    0.0855 H   0  0  0  0  0  0  0  0  0  0  0  0
   17.2797   -2.6065    0.1562 H   0  0  0  0  0  0  0  0  0  0  0  0
   17.2353    2.5838   -0.2977 H   0  0  0  0  0  0  0  0  0  0  0  0
   15.3266    4.4847   -0.1688 H   0  0  0  0  0  0  0  0  0  0  0  0
   11.5613    5.1456   -1.4792 H   0  0  0  0  0  0  0  0  0  0  0  0
   11.5465    7.6079   -1.3017 H   0  0  0  0  0  0  0  0  0  0  0  0
   12.7225    8.7248    0.5683 H   0  0  0  0  0  0  0  0  0  0  0  0
   13.9084    7.3656    2.2636 H   0  0  0  0  0  0  0  0  0  0  0  0
   13.9123    4.9026    2.0935 H   0  0  0  0  0  0  0  0  0  0  0  0
   10.1321    4.3930    0.6489 H   0  0  0  0  0  0  0  0  0  0  0  0
    8.2525    2.4650    0.4717 H   0  0  0  0  0  0  0  0  0  0  0  0
   12.2238   -5.0255   -2.3144 H   0  0  0  0  0  0  0  0  0  0  0  0
   12.2389   -7.4929   -2.4206 H   0  0  0  0  0  0  0  0  0  0  0  0
   12.8277   -8.8174   -0.4141 H   0  0  0  0  0  0  0  0  0  0  0  0
   13.3974   -7.6627    1.6998 H   0  0  0  0  0  0  0  0  0  0  0  0
   13.3751   -5.1954    1.8076 H   0  0  0  0  0  0  0  0  0  0  0  0
   28.7694    0.0418   -0.0199 Ni  0  0  0  0  0  0  0  0  0  0  0  0
   32.1626    0.0656   -0.0490 C   0  0  0  0  0  0  0  0  0  0  0  0
   31.5059    1.2716   -0.1785 C   0  0  0  0  0  0  0  0  0  0  0  0
   32.1805    2.5266   -0.3123 C   0  0  0  0  0  0  0  0  0  0  0  0
   31.2239    3.4840   -0.3040 C   0  0  0  0  0  0  0  0  0  0  0  0
   29.9642    2.8118   -0.1740 C   0  0  0  0  0  0  0  0  0  0  0  0
   30.1469    1.4526   -0.1154 N   0  0  0  0  0  0  0  0  0  0  0  0
   28.7497    3.4694   -0.0330 C   0  0  0  0  0  0  0  0  0  0  0  0
   27.5428    2.7980    0.1017 C   0  0  0  0  0  0  0  0  0  0  0  0
   26.2775    3.4578    0.2158 C   0  0  0  0  0  0  0  0  0  0  0  0
   25.3294    2.4906    0.2062 C   0  0  0  0  0  0  0  0  0  0  0  0
   27.3702    1.4331    0.0397 N   0  0  0  0  0  0  0  0  0  0  0  0
   26.0165    1.2445    0.0828 C   0  0  0  0  0  0  0  0  0  0  0  0
   25.3562    0.0194   -0.0459 C   0  0  0  0  0  0  0  0  0  0  0  0
   26.0358   -1.1974   -0.1485 C   0  0  0  0  0  0  0  0  0  0  0  0
   25.3700   -2.4520   -0.2974 C   0  0  0  0  0  0  0  0  0  0  0  0
   26.3302   -3.4072   -0.2682 C   0  0  0  0  0  0  0  0  0  0  0  0
   27.5803   -2.7318   -0.0947 C   0  0  0  0  0  0  0  0  0  0  0  0
   28.7964   -3.3866    0.0465 C   0  0  0  0  0  0  0  0  0  0  0  0
   28.8042   -4.8693    0.0837 C   0  0  0  0  0  0  0  0  0  0  0  0
   29.4730   -5.5991   -0.8997 C   0  0  0  0  0  0  0  0  0  0  0  0
   29.4753   -6.9855   -0.8632 C   0  0  0  0  0  0  0  0  0  0  0  0
   28.8151   -7.6583    0.1559 C   0  0  0  0  0  0  0  0  0  0  0  0
   28.1491   -6.9389    1.1389 C   0  0  0  0  0  0  0  0  0  0  0  0
   28.1403   -5.5527    1.1033 C   0  0  0  0  0  0  0  0  0  0  0  0
   30.0047   -2.7093    0.1476 C   0  0  0  0  0  0  0  0  0  0  0  0
   31.2721   -3.3568    0.3200 C   0  0  0  0  0  0  0  0  0  0  0  0
   32.2163   -2.3878    0.2802 C   0  0  0  0  0  0  0  0  0  0  0  0
   31.5245   -1.1483    0.0996 C   0  0  0  0  0  0  0  0  0  0  0  0
   30.1679   -1.3497    0.0503 N   0  0  0  0  0  0  0  0  0  0  0  0
   27.3897   -1.3687   -0.0574 N   0  0  0  0  0  0  0  0  0  0  0  0
   28.7399    4.9543   -0.0328 C   0  0  0  0  0  0  0  0  0  0  0  0
   29.0667    5.6613   -1.1898 C   0  0  0  0  0  0  0  0  0  0  0  0
   29.0524    7.0483   -1.1895 C   0  0  0  0  0  0  0  0  0  0  0  0
   28.7174    7.7426   -0.0351 C   0  0  0  0  0  0  0  0  0  0  0  0
   28.3939    7.0448    1.1205 C   0  0  0  0  0  0  0  0  0  0  0  0
   28.4018    5.6578    1.1231 C   0  0  0  0  0  0  0  0  0  0  0  0
   33.2463    0.0734   -0.0536 H   0  0  0  0  0  0  0  0  0  0  0  0
   33.2503    2.6401   -0.3877 H   0  0  0  0  0  0  0  0  0  0  0  0
   31.3465    4.5531   -0.3660 H   0  0  0  0  0  0  0  0  0  0  0  0
   26.1426    4.5252    0.2786 H   0  0  0  0  0  0  0  0  0  0  0  0
   24.2582    2.5957    0.2661 H   0  0  0  0  0  0  0  0  0  0  0  0
   24.3042   -2.5702   -0.4078 H   0  0  0  0  0  0  0  0  0  0  0  0
   26.2133   -4.4744   -0.3618 H   0  0  0  0  0  0  0  0  0  0  0  0
   29.9784   -5.0752   -1.7034 H   0  0  0  0  0  0  0  0  0  0  0  0
   29.9941   -7.5429   -1.6352 H   0  0  0  0  0  0  0  0  0  0  0  0
   28.8193   -8.7421    0.1839 H   0  0  0  0  0  0  0  0  0  0  0  0
   27.6337   -7.4598    1.9383 H   0  0  0  0  0  0  0  0  0  0  0  0
   27.6289   -4.9916    1.8777 H   0  0  0  0  0  0  0  0  0  0  0  0
   31.4080   -4.4175    0.4558 H   0  0  0  0  0  0  0  0  0  0  0  0
   33.2870   -2.4828    0.3666 H   0  0  0  0  0  0  0  0  0  0  0  0
   29.3187    5.1193   -2.0945 H   0  0  0  0  0  0  0  0  0  0  0  0
   29.3029    7.5889   -2.0955 H   0  0  0  0  0  0  0  0  0  0  0  0
   28.7084    8.8267   -0.0361 H   0  0  0  0  0  0  0  0  0  0  0  0
   28.1341    7.5829    2.0254 H   0  0  0  0  0  0  0  0  0  0  0  0
   28.1574    5.1133    2.0283 H   0  0  0  0  0  0  0  0  0  0  0  0
   21.3833    0.0014   -0.0899 C   0  0  0  0  0  0  0  0  0  0  0  0
   20.1555    0.0001   -0.0893 C   0  0  0  0  0  0  0  0  0  0  0  0
   18.8106   -0.0055   -0.0829 C   0  0  0  0  0  0  0  0  0  0  0  0
   17.5874   -0.0099   -0.0670 C   0  0  0  0  0  0  0  0  0  0  0  0
   22.7282    0.0072   -0.0828 C   0  0  0  0  0  0  0  0  0  0  0  0
   23.9514    0.0108   -0.0669 C   0  0  0  0  0  0  0  0  0  0  0  0
  2  3  4  0  0  0  0
  3  4  4  0  0  0  0
  4  5  2  0  0  0  0
  5  6  4  0  0  0  0
  1  7  1  0  0  0  0
  3  7  4  0  0  0  0
  6  7  4  0  0  0  0
  6  8  4  0  0  0  0
  8  9  4  0  0  0  0
  9 10  4  0  0  0  0
 10 11  2  0  0  0  0
  1 12  1  0  0  0  0
  9 12  4  0  0  0  0
 11 13  4  0  0  0  0
 12 13  4  0  0  0  0
 13 14  4  0  0  0  0
 14 15  4  0  0  0  0
 15 16  4  0  0  0  0
 16 17  2  0  0  0  0
 17 18  4  0  0  0  0
 18 19  4  0  0  0  0
 19 20  1  0  0  0  0
 20 21  4  0  0  0  0
 21 22  4  0  0  0  0
 22 23  4  0  0  0  0
 23 24  4  0  0  0  0
 20 25  4  0  0  0  0
 24 25  4  0  0  0  0
 19 26  4  0  0  0  0
 26 27  4  0  0  0  0
 27 28  2  0  0  0  0
  2 29  4  0  0  0  0
 28 29  4  0  0  0  0
  1 30  1  0  0  0  0
 26 30  4  0  0  0  0
 29 30  4  0  0  0  0
  1 31  1  0  0  0  0
 15 31  4  0  0  0  0
 18 31  4  0  0  0  0
  8 32  1  0  0  0  0
 32 33  4  0  0  0  0
 33 34  4  0  0  0  0
 34 35  4  0  0  0  0
 35 36  4  0  0  0  0
 32 37  4  0  0  0  0
 36 37  4  0  0  0  0
  2 38  1  0  0  0  0
  4 39  1  0  0  0  0
  5 40  1  0  0  0  0
 10 41  1  0  0  0  0
 11 42  1  0  0  0  0
 16 43  1  0  0  0  0
 17 44  1  0  0  0  0
 21 45  1  0  0  0  0
 22 46  1  0  0  0  0
 23 47  1  0  0  0  0
 24 48  1  0  0  0  0
 25 49  1  0  0  0  0
 27 50  1  0  0  0  0
 28 51  1  0  0  0  0
 33 52  1  0  0  0  0
 34 53  1  0  0  0  0
 35 54  1  0  0  0  0
 36 55  1  0  0  0  0
 37 56  1  0  0  0  0
 58 59  4  0  0  0  0
 59 60  4  0  0  0  0
 60 61  2  0  0  0  0
 61 62  4  0  0  0  0
 57 63  1  0  0  0  0
 59 63  4  0  0  0  0
 62 63  4  0  0  0  0
 62 64  4  0  0  0  0
 64 65  4  0  0  0  0
 65 66  4  0  0  0  0
 66 67  2  0  0  0  0
 57 68  1  0  0  0  0
 65 68  4  0  0  0  0
 67 69  4  0  0  0  0
 68 69  4  0  0  0  0
 69 70  4  0  0  0  0
 70 71  4  0  0  0  0
 71 72  4  0  0  0  0
 72 73  2  0  0  0  0
 73 74  4  0  0  0  0
 74 75  4  0  0  0  0
 75 76  1  0  0  0  0
 76 77  4  0  0  0  0
 77 78  4  0  0  0  0
 78 79  4  0  0  0  0
 79 80  4  0  0  0  0
 76 81  4  0  0  0  0
 80 81  4  0  0  0  0
 75 82  4  0  0  0  0
 82 83  4  0  0  0  0
 83 84  2  0  0  0  0
 58 85  4  0  0  0  0
 84 85  4  0  0  0  0
 57 86  1  0  0  0  0
 82 86  4  0  0  0  0
 85 86  4  0  0  0  0
 57 87  1  0  0  0  0
 71 87  4  0  0  0  0
 74 87  4  0  0  0  0
 64 88  1  0  0  0  0
 88 89  4  0  0  0  0
 89 90  4  0  0  0  0
 90 91  4  0  0  0  0
 91 92  4  0  0  0  0
 88 93  4  0  0  0  0
 92 93  4  0  0  0  0
 58 94  1  0  0  0  0
 60 95  1  0  0  0  0
 61 96  1  0  0  0  0
 66 97  1  0  0  0  0
 67 98  1  0  0  0  0
 72 99  1  0  0  0  0
 73100  1  0  0  0  0
 77101  1  0  0  0  0
 78102  1  0  0  0  0
 79103  1  0  0  0  0
 80104  1  0  0  0  0
 81105  1  0  0  0  0
 83106  1  0  0  0  0
 84107  1  0  0  0  0
 89108  1  0  0  0  0
 90109  1  0  0  0  0
 91110  1  0  0  0  0
 92111  1  0  0  0  0
 93112  1  0  0  0  0
113114  3  0  0  0  0
114115  4  0  0  0  0
 14116  4  0  0  0  0
115116  3  0  0  0  0
113117  4  0  0  0  0
 70118  4  0  0  0  0
117118  3  0  0  0  0
M  END
