654

C 121.445023 -0.034791 0.087311
C 122.173242 1.341173 0.166064
C 121.565934 2.562833 0.344432
C 122.588554 3.545667 0.297360
C 123.786024 2.889910 0.082284
N 123.525279 1.542643 0.050919
C 125.208865 3.558712 -0.120666
C 125.248262 5.024688 -0.324396
C 125.552611 5.875997 0.744865
C 125.581544 7.259700 0.557839
C 125.305044 7.799525 -0.702815
C 125.335838 9.219280 -0.898704
N 125.359562 10.368764 -1.062992
C 124.998348 6.952117 -1.773288
C 124.970123 5.568145 -1.582602
C 126.339138 2.802228 -0.144150
C 127.642231 3.383122 -0.396236
C 128.545658 2.410504 -0.380077
N 126.537255 1.456732 0.023631
C 127.869217 1.157782 -0.105585
C 128.540583 -0.021871 -0.020264
C 127.767437 -1.369867 0.306660
C 128.321137 -2.521293 0.833864
C 127.293823 -3.494449 0.906476
C 126.140129 -2.908360 0.430914
N 126.425572 -1.599775 0.124441
C 124.727048 -3.611207 0.276396
C 124.694668 -5.086985 0.189654
C 124.352309 -5.857596 1.307937
C 124.330909 -7.250771 1.222582
C 124.656184 -7.882139 0.016940
C 124.632519 -9.312441 -0.073278
N 124.614325 -10.471430 -0.146998
C 125.002838 -7.115559 -1.101693
C 125.021186 -5.722523 -1.013501
C 123.599703 -2.858706 0.192038
C 122.276306 -3.437342 0.036549
C 121.388977 -2.447161 -0.000862
C 122.111276 -1.204403 0.112345
N 123.433673 -1.502122 0.221811
H 120.366176 -0.033347 -0.013708
H 120.507974 2.728761 0.477483
H 122.460279 4.613785 0.386215
H 124.224679 0.810033 -0.039503
H 125.771129 5.442169 1.719442
H 125.821362 7.901718 1.400961
H 124.782618 7.352250 -2.759628
H 124.734733 4.898980 -2.407026
H 127.855162 4.420690 -0.581927
H 129.598182 2.553079 -0.543936
H 129.354248 -2.655373 1.116664
H 127.392088 -4.512002 1.248697
H 125.737667 -0.904172 -0.155110
H 124.097836 -5.353859 2.238250
H 124.059524 -7.829635 2.101113
H 125.261051 -7.586777 -2.046495
H 125.284804 -5.114150 -1.877840
H 122.044770 -4.484199 -0.036324
H 120.323689 -2.547059 -0.108084
C 290.917573 0.020414 0.079493
C 290.189353 -1.279566 0.537239
C 290.796661 -2.403648 1.047835
C 289.774042 -3.360899 1.275537
C 288.576572 -2.790657 0.886823
N 288.837316 -1.505087 0.482569
C 287.153731 -3.489513 0.877574
C 287.114333 -4.954407 1.088944
C 286.809984 -5.475311 2.352551
C 286.781051 -6.856530 2.557121
C 287.057552 -7.725195 1.495951
C 287.026758 -9.143509 1.702018
N 287.003033 -10.293405 1.863392
C 287.364248 -7.208374 0.232263
C 287.392472 -5.825882 0.031135
C 286.023457 -2.769302 0.644946
C 284.720365 -3.397352 0.564083
C 283.816938 -2.458498 0.309520
N 285.825340 -1.430132 0.432497
C 284.493378 -1.178822 0.225348
C 283.822012 -0.021871 -0.020264
C 284.595158 1.363893 -0.080522
C 284.041459 2.616434 0.106208
C 285.068773 3.571480 -0.094272
C 286.222466 2.876382 -0.388379
N 285.937024 1.534159 -0.319418
C 287.635547 3.508679 -0.731994
C 287.667927 4.902328 -1.225133
C 288.010287 5.953167 -0.364822
C 288.031686 7.267848 -0.833690
C 287.706412 7.539590 -2.167240
C 287.730076 8.888586 -2.651090
N 287.748270 9.981523 -3.043750
C 287.359757 6.492526 -3.029006
C 287.341409 5.178767 -2.557451
C 288.762892 2.762348 -0.604072
C 290.086289 3.275049 -0.914127
C 290.973618 2.313422 -0.675104
C 290.251319 1.150978 -0.221248
N 288.928922 1.467385 -0.198760
H 291.996419 -0.009026 -0.017152
H 291.854622 -2.526103 1.221730
H 289.902316 -4.362335 1.657503
H 288.137916 -0.826399 0.192265
H 286.591466 -4.787916 3.168329
H 286.541233 -7.239171 3.545366
H 287.579977 -7.866667 -0.604172
H 287.627863 -5.411968 -0.946687
H 284.507434 -4.445677 0.673817
H 282.764413 -2.640969 0.191697
H 283.008347 2.823771 0.340653
H 284.970507 4.644044 -0.048074
H 286.624928 0.788285 -0.394812
H 288.264759 5.727581 0.668785
H 288.303072 8.067905 -0.150456
H 287.101544 6.682849 -4.067502
H 287.077791 4.354303 -3.218858
H 290.317825 4.260497 -1.274836
H 292.038906 2.379617 -0.805849
C 130.683795 -0.007181 -0.009988
C 132.142021 -0.029017 -0.027861
C 133.275949 -0.049771 -0.029352
C 134.637331 -0.062361 -0.031543
C 135.911550 -0.052054 -0.036308
C 137.100012 -0.033256 -0.042464
C 138.452373 -0.008472 -0.026596
C 139.552640 -0.007181 -0.009988
C 148.434060 -0.007181 -0.009988
C 149.892286 -0.029017 -0.027861
C 151.026215 -0.049771 -0.029352
C 152.387596 -0.062361 -0.031543
C 153.661815 -0.052054 -0.036308
C 154.850278 -0.033256 -0.042464
C 156.202638 -0.008472 -0.026596
C 157.302906 -0.007181 -0.009988
C 166.184326 -0.007181 -0.009988
C 167.642552 -0.029017 -0.027861
C 168.776480 -0.049771 -0.029352
C 170.137862 -0.062361 -0.031543
C 171.412081 -0.052054 -0.036308
C 172.600543 -0.033256 -0.042464
C 173.952904 -0.008472 -0.026596
C 175.053171 -0.007181 -0.009988
C 183.934591 -0.007181 -0.009988
C 185.392817 -0.029017 -0.027861
C 186.526745 -0.049771 -0.029352
C 187.888127 -0.062361 -0.031543
C 189.162346 -0.052054 -0.036308
C 190.350808 -0.033256 -0.042464
C 191.703169 -0.008472 -0.026596
C 192.803437 -0.007181 -0.009988
C 201.684857 -0.007181 -0.009988
C 203.143083 -0.029017 -0.027861
C 204.277011 -0.049771 -0.029352
C 205.638393 -0.062361 -0.031543
C 206.912612 -0.052054 -0.036308
C 208.101074 -0.033256 -0.042464
C 209.453435 -0.008472 -0.026596
C 210.553702 -0.007181 -0.009988
C 219.435122 -0.007181 -0.009988
C 220.893348 -0.029017 -0.027861
C 222.027276 -0.049771 -0.029352
C 223.388658 -0.062361 -0.031543
C 224.662877 -0.052054 -0.036308
C 225.851339 -0.033256 -0.042464
C 227.203700 -0.008472 -0.026596
C 228.303967 -0.007181 -0.009988
C 237.185387 -0.007181 -0.009988
C 238.643614 -0.029017 -0.027861
C 239.777542 -0.049771 -0.029352
C 241.138924 -0.062361 -0.031543
C 242.413142 -0.052054 -0.036308
C 243.601605 -0.033256 -0.042464
C 244.953966 -0.008472 -0.026596
C 246.054233 -0.007181 -0.009988
C 254.935653 -0.007181 -0.009988
C 256.393879 -0.029017 -0.027861
C 257.527807 -0.049771 -0.029352
C 258.889189 -0.062361 -0.031543
C 260.163408 -0.052054 -0.036308
C 261.351870 -0.033256 -0.042464
C 262.704231 -0.008472 -0.026596
C 263.804498 -0.007181 -0.009988
C 272.685918 -0.007181 -0.009988
C 274.144145 -0.029017 -0.027861
C 275.278073 -0.049771 -0.029352
C 276.639454 -0.062361 -0.031543
C 277.913673 -0.052054 -0.036308
C 279.102136 -0.033256 -0.042464
C 280.454496 -0.008472 -0.026596
C 281.554764 -0.007181 -0.009988
C 140.476321 0.006676 0.006703
C 141.271555 1.158407 -0.735034
C 140.770389 2.378775 -1.139794
C 141.808951 3.054500 -1.830512
C 142.912729 2.227644 -1.820488
N 142.598325 1.112214 -1.085730
C 144.299559 2.501374 -2.531734
C 144.287426 3.346759 -3.746099
C 143.810764 2.827923 -4.955535
C 143.784144 3.624608 -6.102375
C 144.233368 4.948763 -6.043894
C 144.207291 5.767849 -7.219867
N 144.186002 6.433830 -8.171899
C 144.707474 5.473273 -4.836055
C 144.731839 4.673880 -3.691314
C 145.435935 1.929116 -2.055394
C 146.721356 2.100295 -2.701018
C 147.630437 1.420234 -2.010764
N 145.645774 1.118093 -0.975438
C 146.969950 0.780538 -0.891066
C 147.634275 0.006676 0.006703
C 146.839058 -0.666756 1.199671
C 147.340310 -0.999979 2.441440
C 146.301755 -1.650183 3.156238
C 145.197874 -1.688010 2.330327
N 145.512225 -1.019313 1.174071
C 143.811049 -2.382137 2.645019
C 143.823368 -3.545582 3.559228
C 144.301671 -4.782495 3.111552
C 144.328500 -5.881415 3.973108
C 143.877865 -5.747051 5.291240
C 143.904105 -6.873819 6.176790
N 143.925469 -7.785940 6.896439
C 143.402169 -4.511392 5.744710
C 143.377627 -3.414701 4.880562
C 142.674642 -1.939856 2.046094
C 141.389272 -2.574594 2.254351
C 140.480181 -1.925112 1.535268
C 141.140617 -0.844411 0.831646
N 142.464751 -0.908807 1.173749
H 139.764796 2.735887 -0.976619
H 141.751053 4.025184 -2.299212
H 143.255862 0.389773 -0.806880
H 143.463335 1.796791 -4.989599
H 143.411459 3.200116 -7.030871
H 145.060935 6.498916 -4.771600
H 145.100190 5.069244 -2.746212
H 146.917122 2.669406 -3.591858
H 148.674533 1.362758 -2.259200
H 148.345953 -0.816493 2.788362
H 146.359696 -2.061781 4.152488
H 144.854612 -0.782671 0.436824
H 144.650231 -4.875686 2.084459
H 144.702456 -6.832505 3.603267
H 143.047597 -4.388200 6.764584
H 143.008080 -2.448692 5.220382
H 141.193554 -3.430943 2.874162
H 139.436130 -2.176635 1.492164
C 158.226586 0.006676 0.006703
C 159.021820 1.158407 -0.735034
C 158.520655 2.378775 -1.139794
C 159.559216 3.054500 -1.830512
C 160.662995 2.227644 -1.820488
N 160.348591 1.112214 -1.085730
C 162.049824 2.501374 -2.531734
C 162.037692 3.346759 -3.746099
C 161.561030 2.827923 -4.955535
C 161.534409 3.624608 -6.102375
C 161.983633 4.948763 -6.043894
C 161.957556 5.767849 -7.219867
N 161.936268 6.433830 -8.171899
C 162.457739 5.473273 -4.836055
C 162.482105 4.673880 -3.691314
C 163.186201 1.929116 -2.055394
C 164.471621 2.100295 -2.701018
C 165.380702 1.420234 -2.010764
N 163.396039 1.118093 -0.975438
C 164.720215 0.780538 -0.891066
C 165.384541 0.006676 0.006703
C 164.589324 -0.666756 1.199671
C 165.090576 -0.999979 2.441440
C 164.052020 -1.650183 3.156238
C 162.948139 -1.688010 2.330327
N 163.262490 -1.019313 1.174071
C 161.561314 -2.382137 2.645019
C 161.573633 -3.545582 3.559228
C 162.051937 -4.782495 3.111552
C 162.078766 -5.881415 3.973108
C 161.628130 -5.747051 5.291240
C 161.654370 -6.873819 6.176790
N 161.675734 -7.785940 6.896439
C 161.152435 -4.511392 5.744710
C 161.127892 -3.414701 4.880562
C 160.424908 -1.939856 2.046094
C 159.139537 -2.574594 2.254351
C 158.230447 -1.925112 1.535268
C 158.890883 -0.844411 0.831646
N 160.215016 -0.908807 1.173749
H 157.515061 2.735887 -0.976619
H 159.501319 4.025184 -2.299212
H 161.006127 0.389773 -0.806880
H 161.213600 1.796791 -4.989599
H 161.161724 3.200116 -7.030871
H 162.811200 6.498916 -4.771600
H 162.850455 5.069244 -2.746212
H 164.667387 2.669406 -3.591858
H 166.424799 1.362758 -2.259200
H 166.096218 -0.816493 2.788362
H 164.109961 -2.061781 4.152488
H 162.604877 -0.782671 0.436824
H 162.400496 -4.875686 2.084459
H 162.452722 -6.832505 3.603267
H 160.797862 -4.388200 6.764584
H 160.758346 -2.448692 5.220382
H 158.943819 -3.430943 2.874162
H 157.186395 -2.176635 1.492164
C 175.976852 0.006676 0.006703
C 176.772086 1.158407 -0.735034
C 176.270920 2.378775 -1.139794
C 177.309482 3.054500 -1.830512
C 178.413260 2.227644 -1.820488
N 178.098856 1.112214 -1.085730
C 179.800090 2.501374 -2.531734
C 179.787957 3.346759 -3.746099
C 179.311295 2.827923 -4.955535
C 179.284675 3.624608 -6.102375
C 179.733899 4.948763 -6.043894
C 179.707822 5.767849 -7.219867
N 179.686533 6.433830 -8.171899
C 180.208005 5.473273 -4.836055
C 180.232370 4.673880 -3.691314
C 180.936466 1.929116 -2.055394
C 182.221887 2.100295 -2.701018
C 183.130968 1.420234 -2.010764
N 181.146305 1.118093 -0.975438
C 182.470481 0.780538 -0.891066
C 183.134806 0.006676 0.006703
C 182.339589 -0.666756 1.199671
C 182.840841 -0.999979 2.441440
C 181.802286 -1.650183 3.156238
C 180.698405 -1.688010 2.330327
N 181.012755 -1.019313 1.174071
C 179.311580 -2.382137 2.645019
C 179.323899 -3.545582 3.559228
C 179.802202 -4.782495 3.111552
C 179.829031 -5.881415 3.973108
C 179.378396 -5.747051 5.291240
C 179.404636 -6.873819 6.176790
N 179.426000 -7.785940 6.896439
C 178.902700 -4.511392 5.744710
C 178.878158 -3.414701 4.880562
C 178.175173 -1.939856 2.046094
C 176.889803 -2.574594 2.254351
C 175.980712 -1.925112 1.535268
C 176.641148 -0.844411 0.831646
N 177.965282 -0.908807 1.173749
H 175.265327 2.735887 -0.976619
H 177.251584 4.025184 -2.299212
H 178.756393 0.389773 -0.806880
H 178.963866 1.796791 -4.989599
H 178.911990 3.200116 -7.030871
H 180.561466 6.498916 -4.771600
H 180.600720 5.069244 -2.746212
H 182.417653 2.669406 -3.591858
H 184.175064 1.362758 -2.259200
H 183.846484 -0.816493 2.788362
H 181.860227 -2.061781 4.152488
H 180.355143 -0.782671 0.436824
H 180.150762 -4.875686 2.084459
H 180.202987 -6.832505 3.603267
H 178.548128 -4.388200 6.764584
H 178.508611 -2.448692 5.220382
H 176.694085 -3.430943 2.874162
H 174.936661 -2.176635 1.492164
C 193.727117 0.006676 0.006703
C 194.522351 1.158407 -0.735034
C 194.021186 2.378775 -1.139794
C 195.059747 3.054500 -1.830512
C 196.163526 2.227644 -1.820488
N 195.849122 1.112214 -1.085730
C 197.550355 2.501374 -2.531734
C 197.538222 3.346759 -3.746099
C 197.061561 2.827923 -4.955535
C 197.034940 3.624608 -6.102375
C 197.484164 4.948763 -6.043894
C 197.458087 5.767849 -7.219867
N 197.436798 6.433830 -8.171899
C 197.958270 5.473273 -4.836055
C 197.982635 4.673880 -3.691314
C 198.686732 1.929116 -2.055394
C 199.972152 2.100295 -2.701018
C 200.881233 1.420234 -2.010764
N 198.896570 1.118093 -0.975438
C 200.220746 0.780538 -0.891066
C 200.885072 0.006676 0.006703
C 200.089855 -0.666756 1.199671
C 200.591107 -0.999979 2.441440
C 199.552551 -1.650183 3.156238
C 198.448670 -1.688010 2.330327
N 198.763021 -1.019313 1.174071
C 197.061845 -2.382137 2.645019
C 197.074164 -3.545582 3.559228
C 197.552468 -4.782495 3.111552
C 197.579297 -5.881415 3.973108
C 197.128661 -5.747051 5.291240
C 197.154901 -6.873819 6.176790
N 197.176265 -7.785940 6.896439
C 196.652966 -4.511392 5.744710
C 196.628423 -3.414701 4.880562
C 195.925438 -1.939856 2.046094
C 194.640068 -2.574594 2.254351
C 193.730978 -1.925112 1.535268
C 194.391414 -0.844411 0.831646
N 195.715547 -0.908807 1.173749
H 193.015592 2.735887 -0.976619
H 195.001850 4.025184 -2.299212
H 196.506658 0.389773 -0.806880
H 196.714131 1.796791 -4.989599
H 196.662255 3.200116 -7.030871
H 198.311731 6.498916 -4.771600
H 198.350986 5.069244 -2.746212
H 200.167918 2.669406 -3.591858
H 201.925330 1.362758 -2.259200
H 201.596749 -0.816493 2.788362
H 199.610492 -2.061781 4.152488
H 198.105408 -0.782671 0.436824
H 197.901027 -4.875686 2.084459
H 197.953253 -6.832505 3.603267
H 196.298393 -4.388200 6.764584
H 196.258876 -2.448692 5.220382
H 194.444350 -3.430943 2.874162
H 192.686926 -2.176635 1.492164
C 211.477383 0.006676 0.006703
C 212.272616 1.158407 -0.735034
C 211.771451 2.378775 -1.139794
C 212.810013 3.054500 -1.830512
C 213.913791 2.227644 -1.820488
N 213.599387 1.112214 -1.085730
C 215.300621 2.501374 -2.531734
C 215.288488 3.346759 -3.746099
C 214.811826 2.827923 -4.955535
C 214.785206 3.624608 -6.102375
C 215.234430 4.948763 -6.043894
C 215.208353 5.767849 -7.219867
N 215.187064 6.433830 -8.171899
C 215.708536 5.473273 -4.836055
C 215.732901 4.673880 -3.691314
C 216.436997 1.929116 -2.055394
C 217.722417 2.100295 -2.701018
C 218.631499 1.420234 -2.010764
N 216.646836 1.118093 -0.975438
C 217.971012 0.780538 -0.891066
C 218.635337 0.006676 0.006703
C 217.840120 -0.666756 1.199671
C 218.341372 -0.999979 2.441440
C 217.302817 -1.650183 3.156238
C 216.198936 -1.688010 2.330327
N 216.513286 -1.019313 1.174071
C 214.812111 -2.382137 2.645019
C 214.824430 -3.545582 3.559228
C 215.302733 -4.782495 3.111552
C 215.329562 -5.881415 3.973108
C 214.878927 -5.747051 5.291240
C 214.905167 -6.873819 6.176790
N 214.926531 -7.785940 6.896439
C 214.403231 -4.511392 5.744710
C 214.378689 -3.414701 4.880562
C 213.675704 -1.939856 2.046094
C 212.390334 -2.574594 2.254351
C 211.481243 -1.925112 1.535268
C 212.141679 -0.844411 0.831646
N 213.465813 -0.908807 1.173749
H 210.765858 2.735887 -0.976619
H 212.752115 4.025184 -2.299212
H 214.256924 0.389773 -0.806880
H 214.464397 1.796791 -4.989599
H 214.412521 3.200116 -7.030871
H 216.061997 6.498916 -4.771600
H 216.101251 5.069244 -2.746212
H 217.918184 2.669406 -3.591858
H 219.675595 1.362758 -2.259200
H 219.347014 -0.816493 2.788362
H 217.360758 -2.061781 4.152488
H 215.855674 -0.782671 0.436824
H 215.651293 -4.875686 2.084459
H 215.703518 -6.832505 3.603267
H 214.048659 -4.388200 6.764584
H 214.009142 -2.448692 5.220382
H 212.194615 -3.430943 2.874162
H 210.437192 -2.176635 1.492164
C 229.227648 0.006676 0.006703
C 230.022882 1.158407 -0.735034
C 229.521716 2.378775 -1.139794
C 230.560278 3.054500 -1.830512
C 231.664057 2.227644 -1.820488
N 231.349653 1.112214 -1.085730
C 233.050886 2.501374 -2.531734
C 233.038753 3.346759 -3.746099
C 232.562092 2.827923 -4.955535
C 232.535471 3.624608 -6.102375
C 232.984695 4.948763 -6.043894
C 232.958618 5.767849 -7.219867
N 232.937329 6.433830 -8.171899
C 233.458801 5.473273 -4.836055
C 233.483166 4.673880 -3.691314
C 234.187263 1.929116 -2.055394
C 235.472683 2.100295 -2.701018
C 236.381764 1.420234 -2.010764
N 234.397101 1.118093 -0.975438
C 235.721277 0.780538 -0.891066
C 236.385603 0.006676 0.006703
C 235.590386 -0.666756 1.199671
C 236.091637 -0.999979 2.441440
C 235.053082 -1.650183 3.156238
C 233.949201 -1.688010 2.330327
N 234.263552 -1.019313 1.174071
C 232.562376 -2.382137 2.645019
C 232.574695 -3.545582 3.559228
C 233.052998 -4.782495 3.111552
C 233.079828 -5.881415 3.973108
C 232.629192 -5.747051 5.291240
C 232.655432 -6.873819 6.176790
N 232.676796 -7.785940 6.896439
C 232.153497 -4.511392 5.744710
C 232.128954 -3.414701 4.880562
C 231.425969 -1.939856 2.046094
C 230.140599 -2.574594 2.254351
C 229.231509 -1.925112 1.535268
C 229.891945 -0.844411 0.831646
N 231.216078 -0.908807 1.173749
H 228.516123 2.735887 -0.976619
H 230.502381 4.025184 -2.299212
H 232.007189 0.389773 -0.806880
H 232.214662 1.796791 -4.989599
H 232.162786 3.200116 -7.030871
H 233.812262 6.498916 -4.771600
H 233.851517 5.069244 -2.746212
H 235.668449 2.669406 -3.591858
H 237.425861 1.362758 -2.259200
H 237.097280 -0.816493 2.788362
H 235.111023 -2.061781 4.152488
H 233.605939 -0.782671 0.436824
H 233.401558 -4.875686 2.084459
H 233.453784 -6.832505 3.603267
H 231.798924 -4.388200 6.764584
H 231.759407 -2.448692 5.220382
H 229.944881 -3.430943 2.874162
H 228.187457 -2.176635 1.492164
C 246.977913 0.006676 0.006703
C 247.773147 1.158407 -0.735034
C 247.271982 2.378775 -1.139794
C 248.310544 3.054500 -1.830512
C 249.414322 2.227644 -1.820488
N 249.099918 1.112214 -1.085730
C 250.801151 2.501374 -2.531734
C 250.789019 3.346759 -3.746099
C 250.312357 2.827923 -4.955535
C 250.285737 3.624608 -6.102375
C 250.734961 4.948763 -6.043894
C 250.708884 5.767849 -7.219867
N 250.687595 6.433830 -8.171899
C 251.209067 5.473273 -4.836055
C 251.233432 4.673880 -3.691314
C 251.937528 1.929116 -2.055394
C 253.222948 2.100295 -2.701018
C 254.132030 1.420234 -2.010764
N 252.147367 1.118093 -0.975438
C 253.471543 0.780538 -0.891066
C 254.135868 0.006676 0.006703
C 253.340651 -0.666756 1.199671
C 253.841903 -0.999979 2.441440
C 252.803348 -1.650183 3.156238
C 251.699467 -1.688010 2.330327
N 252.013817 -1.019313 1.174071
C 250.312642 -2.382137 2.645019
C 250.324961 -3.545582 3.559228
C 250.803264 -4.782495 3.111552
C 250.830093 -5.881415 3.973108
C 250.379458 -5.747051 5.291240
C 250.405697 -6.873819 6.176790
N 250.427061 -7.785940 6.896439
C 249.903762 -4.511392 5.744710
C 249.879219 -3.414701 4.880562
C 249.176235 -1.939856 2.046094
C 247.890865 -2.574594 2.254351
C 246.981774 -1.925112 1.535268
C 247.642210 -0.844411 0.831646
N 248.966343 -0.908807 1.173749
H 246.266389 2.735887 -0.976619
H 248.252646 4.025184 -2.299212
H 249.757455 0.389773 -0.806880
H 249.964928 1.796791 -4.989599
H 249.913052 3.200116 -7.030871
H 251.562528 6.498916 -4.771600
H 251.601782 5.069244 -2.746212
H 253.418715 2.669406 -3.591858
H 255.176126 1.362758 -2.259200
H 254.847545 -0.816493 2.788362
H 252.861289 -2.061781 4.152488
H 251.356204 -0.782671 0.436824
H 251.151824 -4.875686 2.084459
H 251.204049 -6.832505 3.603267
H 249.549189 -4.388200 6.764584
H 249.509673 -2.448692 5.220382
H 247.695146 -3.430943 2.874162
H 245.937722 -2.176635 1.492164
C 264.728179 0.006676 0.006703
C 265.523413 1.158407 -0.735034
C 265.022247 2.378775 -1.139794
C 266.060809 3.054500 -1.830512
C 267.164587 2.227644 -1.820488
N 266.850183 1.112214 -1.085730
C 268.551417 2.501374 -2.531734
C 268.539284 3.346759 -3.746099
C 268.062623 2.827923 -4.955535
C 268.036002 3.624608 -6.102375
C 268.485226 4.948763 -6.043894
C 268.459149 5.767849 -7.219867
N 268.437860 6.433830 -8.171899
C 268.959332 5.473273 -4.836055
C 268.983697 4.673880 -3.691314
C 269.687794 1.929116 -2.055394
C 270.973214 2.100295 -2.701018
C 271.882295 1.420234 -2.010764
N 269.897632 1.118093 -0.975438
C 271.221808 0.780538 -0.891066
C 271.886133 0.006676 0.006703
C 271.090917 -0.666756 1.199671
C 271.592168 -0.999979 2.441440
C 270.553613 -1.650183 3.156238
C 269.449732 -1.688010 2.330327
N 269.764083 -1.019313 1.174071
C 268.062907 -2.382137 2.645019
C 268.075226 -3.545582 3.559228
C 268.553529 -4.782495 3.111552
C 268.580359 -5.881415 3.973108
C 268.129723 -5.747051 5.291240
C 268.155963 -6.873819 6.176790
N 268.177327 -7.785940 6.896439
C 267.654027 -4.511392 5.744710
C 267.629485 -3.414701 4.880562
C 266.926500 -1.939856 2.046094
C 265.641130 -2.574594 2.254351
C 264.732040 -1.925112 1.535268
C 265.392476 -0.844411 0.831646
N 266.716609 -0.908807 1.173749
H 264.016654 2.735887 -0.976619
H 266.002911 4.025184 -2.299212
H 267.507720 0.389773 -0.806880
H 267.715193 1.796791 -4.989599
H 267.663317 3.200116 -7.030871
H 269.312793 6.498916 -4.771600
H 269.352048 5.069244 -2.746212
H 271.168980 2.669406 -3.591858
H 272.926392 1.362758 -2.259200
H 272.597811 -0.816493 2.788362
H 270.611554 -2.061781 4.152488
H 269.106470 -0.782671 0.436824
H 268.902089 -4.875686 2.084459
H 268.954315 -6.832505 3.603267
H 267.299455 -4.388200 6.764584
H 267.259938 -2.448692 5.220382
H 265.445412 -3.430943 2.874162
H 263.687988 -2.176635 1.492164
