 xtb: 6.5.1 (b24c23e)
          07302211043D

266305  0     0  0            999 V2000
   51.0587    0.0723    0.0156 Ni  0  0  0  0  0  0  0  0  0  0  0  0
   47.6715    0.1965    0.0689 C   0  0  0  0  0  0  0  0  0  0  0  0
   48.3213   -0.2605    1.1967 C   0  0  0  0  0  0  0  0  0  0  0  0
   47.6456   -0.7209    2.3715 C   0  0  0  0  0  0  0  0  0  0  0  0
   48.6026   -0.9892    3.2902 C   0  0  0  0  0  0  0  0  0  0  0  0
   49.8623   -0.6751    2.6807 C   0  0  0  0  0  0  0  0  0  0  0  0
   49.6812   -0.2709    1.3819 N   0  0  0  0  0  0  0  0  0  0  0  0
   51.0804   -0.7114    3.3467 C   0  0  0  0  0  0  0  0  0  0  0  0
   51.0986   -1.0668    4.7853 C   0  0  0  0  0  0  0  0  0  0  0  0
   50.4313   -0.2708    5.7194 C   0  0  0  0  0  0  0  0  0  0  0  0
   50.4566   -0.5965    7.0655 C   0  0  0  0  0  0  0  0  0  0  0  0
   51.1494   -1.7285    7.4632 C   0  0  0  0  0  0  0  0  0  0  0  0
   51.1965   -2.1385    9.1672 S   0  0  0  0  0  0  0  0  0  0  0  0
   51.0021   -0.9727    9.9781 O   0  0  0  0  0  0  0  0  0  0  0  0
   49.8408   -3.0302    9.2322 O   0  0  0  0  0  0  0  0  0  0  0  0
   52.3115   -2.9923    9.4532 O   0  0  0  0  0  0  0  0  0  0  0  0
   51.8202   -2.5374    6.5606 C   0  0  0  0  0  0  0  0  0  0  0  0
   51.7933   -2.1991    5.2177 C   0  0  0  0  0  0  0  0  0  0  0  0
   52.2868   -0.4202    2.7224 C   0  0  0  0  0  0  0  0  0  0  0  0
   53.5454   -0.3644    3.4030 C   0  0  0  0  0  0  0  0  0  0  0  0
   54.4912   -0.1459    2.4583 C   0  0  0  0  0  0  0  0  0  0  0  0
   52.4568   -0.1928    1.3767 N   0  0  0  0  0  0  0  0  0  0  0  0
   53.8088   -0.0656    1.2058 C   0  0  0  0  0  0  0  0  0  0  0  0
   54.4672    0.0155   -0.0229 C   0  0  0  0  0  0  0  0  0  0  0  0
   53.7847    0.1005   -1.2385 C   0  0  0  0  0  0  0  0  0  0  0  0
   54.4402    0.1300   -2.5072 C   0  0  0  0  0  0  0  0  0  0  0  0
   53.4787    0.3463   -3.4367 C   0  0  0  0  0  0  0  0  0  0  0  0
   52.2388    0.4603   -2.7295 C   0  0  0  0  0  0  0  0  0  0  0  0
   52.4335    0.2618   -1.3822 N   0  0  0  0  0  0  0  0  0  0  0  0
   51.0310    0.7923   -3.3298 C   0  0  0  0  0  0  0  0  0  0  0  0
   51.0228    1.1088   -4.7774 C   0  0  0  0  0  0  0  0  0  0  0  0
   50.2764    0.3318   -5.6664 C   0  0  0  0  0  0  0  0  0  0  0  0
   50.2680    0.6252   -7.0203 C   0  0  0  0  0  0  0  0  0  0  0  0
   51.0097    1.7048   -7.4714 C   0  0  0  0  0  0  0  0  0  0  0  0
   50.9934    2.0915   -9.1816 S   0  0  0  0  0  0  0  0  0  0  0  0
   51.2762    3.4805   -9.3977 O   0  0  0  0  0  0  0  0  0  0  0  0
   52.3060    1.2463   -9.6301 O   0  0  0  0  0  0  0  0  0  0  0  0
   49.8427    1.5197   -9.8145 O   0  0  0  0  0  0  0  0  0  0  0  0
   51.7542    2.4979   -6.6132 C   0  0  0  0  0  0  0  0  0  0  0  0
   51.7598    2.1923   -5.2624 C   0  0  0  0  0  0  0  0  0  0  0  0
   49.8340    0.8499   -2.6274 C   0  0  0  0  0  0  0  0  0  0  0  0
   48.5818    1.2457   -3.2040 C   0  0  0  0  0  0  0  0  0  0  0  0
   47.6399    1.0796   -2.2465 C   0  0  0  0  0  0  0  0  0  0  0  0
   48.3176    0.5919   -1.0838 C   0  0  0  0  0  0  0  0  0  0  0  0
   49.6672    0.4909   -1.3138 N   0  0  0  0  0  0  0  0  0  0  0  0
   46.5889    0.2406    0.0871 H   0  0  0  0  0  0  0  0  0  0  0  0
   46.5758   -0.8206    2.4614 H   0  0  0  0  0  0  0  0  0  0  0  0
   48.4803   -1.3661    4.2926 H   0  0  0  0  0  0  0  0  0  0  0  0
   49.9061    0.6176    5.3887 H   0  0  0  0  0  0  0  0  0  0  0  0
   49.9542    0.0202    7.8001 H   0  0  0  0  0  0  0  0  0  0  0  0
   49.6786   -3.3265   10.1361 H   0  0  0  0  0  0  0  0  0  0  0  0
   52.3564   -3.4120    6.9070 H   0  0  0  0  0  0  0  0  0  0  0  0
   52.3051   -2.8221    4.4935 H   0  0  0  0  0  0  0  0  0  0  0  0
   53.6773   -0.4725    4.4671 H   0  0  0  0  0  0  0  0  0  0  0  0
   55.5579   -0.0511    2.5816 H   0  0  0  0  0  0  0  0  0  0  0  0
   55.5007    0.0015   -2.6516 H   0  0  0  0  0  0  0  0  0  0  0  0
   53.5886    0.4202   -4.5063 H   0  0  0  0  0  0  0  0  0  0  0  0
   49.7111   -0.5144   -5.2940 H   0  0  0  0  0  0  0  0  0  0  0  0
   49.6934    0.0298   -7.7186 H   0  0  0  0  0  0  0  0  0  0  0  0
   52.5728    1.4952  -10.5234 H   0  0  0  0  0  0  0  0  0  0  0  0
   52.3123    3.3420   -6.9984 H   0  0  0  0  0  0  0  0  0  0  0  0
   52.3264    2.8063   -4.5722 H   0  0  0  0  0  0  0  0  0  0  0  0
   48.4543    1.6062   -4.2117 H   0  0  0  0  0  0  0  0  0  0  0  0
   46.5788    1.2624   -2.3035 H   0  0  0  0  0  0  0  0  0  0  0  0
   91.3577    0.0598   -0.0042 Ni  0  0  0  0  0  0  0  0  0  0  0  0
   94.7480    0.1887   -0.0163 C   0  0  0  0  0  0  0  0  0  0  0  0
   94.0951    0.1989   -1.2311 C   0  0  0  0  0  0  0  0  0  0  0  0
   94.7703    0.2265   -2.4929 C   0  0  0  0  0  0  0  0  0  0  0  0
   93.8120    0.3164   -3.4441 C   0  0  0  0  0  0  0  0  0  0  0  0
   92.5520    0.3592   -2.7605 C   0  0  0  0  0  0  0  0  0  0  0  0
   92.7345    0.2477   -1.4051 N   0  0  0  0  0  0  0  0  0  0  0  0
   91.3305    0.5425   -3.3949 C   0  0  0  0  0  0  0  0  0  0  0  0
   91.3132    0.7441   -4.8633 C   0  0  0  0  0  0  0  0  0  0  0  0
   91.9463    1.8524   -5.4309 C   0  0  0  0  0  0  0  0  0  0  0  0
   91.9235    2.0488   -6.8019 C   0  0  0  0  0  0  0  0  0  0  0  0
   91.2676    1.1220   -7.5957 C   0  0  0  0  0  0  0  0  0  0  0  0
   91.2247    1.3715   -9.3306 S   0  0  0  0  0  0  0  0  0  0  0  0
   91.3906    2.7589   -9.6492 O   0  0  0  0  0  0  0  0  0  0  0  0
   92.5985    0.5946   -9.7137 O   0  0  0  0  0  0  0  0  0  0  0  0
   90.1289    0.6605   -9.9207 O   0  0  0  0  0  0  0  0  0  0  0  0
   90.6313    0.0131   -7.0621 C   0  0  0  0  0  0  0  0  0  0  0  0
   90.6554   -0.1705   -5.6895 C   0  0  0  0  0  0  0  0  0  0  0  0
   90.1216    0.5531   -2.7113 C   0  0  0  0  0  0  0  0  0  0  0  0
   88.8578    0.8132   -3.3325 C   0  0  0  0  0  0  0  0  0  0  0  0
   87.9132    0.6641   -2.3736 C   0  0  0  0  0  0  0  0  0  0  0  0
   89.9550    0.2865   -1.3722 N   0  0  0  0  0  0  0  0  0  0  0  0
   88.6016    0.3197   -1.1700 C   0  0  0  0  0  0  0  0  0  0  0  0
   87.9468   -0.0146    0.0164 C   0  0  0  0  0  0  0  0  0  0  0  0
   88.6294   -0.3333    1.1913 C   0  0  0  0  0  0  0  0  0  0  0  0
   87.9715   -0.7274    2.3967 C   0  0  0  0  0  0  0  0  0  0  0  0
   88.9348   -0.8621    3.3391 C   0  0  0  0  0  0  0  0  0  0  0  0
   90.1784   -0.5369    2.7078 C   0  0  0  0  0  0  0  0  0  0  0  0
   89.9830   -0.2507    1.3765 N   0  0  0  0  0  0  0  0  0  0  0  0
   91.3930   -0.4761    3.3784 C   0  0  0  0  0  0  0  0  0  0  0  0
   91.4081   -0.7127    4.8416 C   0  0  0  0  0  0  0  0  0  0  0  0
   92.1212   -1.7899    5.3729 C   0  0  0  0  0  0  0  0  0  0  0  0
   92.1381   -2.0162    6.7395 C   0  0  0  0  0  0  0  0  0  0  0  0
   91.4383   -1.1516    7.5652 C   0  0  0  0  0  0  0  0  0  0  0  0
   91.4665   -1.4237    9.2973 S   0  0  0  0  0  0  0  0  0  0  0  0
   91.2218   -0.2063   10.0142 O   0  0  0  0  0  0  0  0  0  0  0  0
   90.1315   -2.3411    9.4182 O   0  0  0  0  0  0  0  0  0  0  0  0
   92.6021   -2.2173    9.6608 O   0  0  0  0  0  0  0  0  0  0  0  0
   90.7273   -0.0711    7.0684 C   0  0  0  0  0  0  0  0  0  0  0  0
   90.7131    0.1428    5.7000 C   0  0  0  0  0  0  0  0  0  0  0  0
   92.5931   -0.1974    2.7376 C   0  0  0  0  0  0  0  0  0  0  0  0
   93.8515   -0.0695    3.4138 C   0  0  0  0  0  0  0  0  0  0  0  0
   94.7913    0.1206    2.4590 C   0  0  0  0  0  0  0  0  0  0  0  0
   94.1062    0.1170    1.2022 C   0  0  0  0  0  0  0  0  0  0  0  0
   92.7551   -0.0446    1.3839 N   0  0  0  0  0  0  0  0  0  0  0  0
   95.8308    0.2334   -0.0197 H   0  0  0  0  0  0  0  0  0  0  0  0
   95.8408    0.1800   -2.6140 H   0  0  0  0  0  0  0  0  0  0  0  0
   93.9335    0.3494   -4.5146 H   0  0  0  0  0  0  0  0  0  0  0  0
   92.4432    2.5718   -4.7905 H   0  0  0  0  0  0  0  0  0  0  0  0
   92.3998    2.9108   -7.2519 H   0  0  0  0  0  0  0  0  0  0  0  0
   92.7401    0.6170  -10.6680 H   0  0  0  0  0  0  0  0  0  0  0  0
   90.1234   -0.6885   -7.7119 H   0  0  0  0  0  0  0  0  0  0  0  0
   90.1705   -1.0351   -5.2515 H   0  0  0  0  0  0  0  0  0  0  0  0
   88.7220    1.0820   -4.3672 H   0  0  0  0  0  0  0  0  0  0  0  0
   86.8440    0.7719   -2.4582 H   0  0  0  0  0  0  0  0  0  0  0  0
   86.9084   -0.8782    2.4925 H   0  0  0  0  0  0  0  0  0  0  0  0
   88.8240   -1.1581    4.3694 H   0  0  0  0  0  0  0  0  0  0  0  0
   92.6542   -2.4595    4.7081 H   0  0  0  0  0  0  0  0  0  0  0  0
   92.6875   -2.8477    7.1625 H   0  0  0  0  0  0  0  0  0  0  0  0
   89.8583   -2.4105   10.3411 H   0  0  0  0  0  0  0  0  0  0  0  0
   90.2019    0.5920    7.7441 H   0  0  0  0  0  0  0  0  0  0  0  0
   90.1727    0.9886    5.2912 H   0  0  0  0  0  0  0  0  0  0  0  0
   93.9839   -0.1158    4.4825 H   0  0  0  0  0  0  0  0  0  0  0  0
   95.8553    0.2516    2.5744 H   0  0  0  0  0  0  0  0  0  0  0  0
   57.0954   -0.0068   -0.0452 C   0  0  0  0  0  0  0  0  0  0  0  0
   55.8747    0.0021   -0.0367 C   0  0  0  0  0  0  0  0  0  0  0  0
   58.4473   -0.0090   -0.0542 C   0  0  0  0  0  0  0  0  0  0  0  0
   59.6681   -0.0130   -0.0546 C   0  0  0  0  0  0  0  0  0  0  0  0
   70.5267   -0.0399   -0.0122 C   0  0  0  0  0  0  0  0  0  0  0  0
   69.3052   -0.0350   -0.0183 C   0  0  0  0  0  0  0  0  0  0  0  0
   71.8770   -0.0443   -0.0079 C   0  0  0  0  0  0  0  0  0  0  0  0
   73.0985   -0.0488   -0.0044 C   0  0  0  0  0  0  0  0  0  0  0  0
   83.9646   -0.0630    0.0273 C   0  0  0  0  0  0  0  0  0  0  0  0
   82.7443   -0.0674    0.0230 C   0  0  0  0  0  0  0  0  0  0  0  0
   85.3176   -0.0526    0.0279 C   0  0  0  0  0  0  0  0  0  0  0  0
   86.5378   -0.0373    0.0252 C   0  0  0  0  0  0  0  0  0  0  0  0
   64.4874   -0.0208   -0.0429 Ni  0  0  0  0  0  0  0  0  0  0  0  0
   61.0752   -0.0160   -0.0520 C   0  0  0  0  0  0  0  0  0  0  0  0
   61.7470    0.9274    0.7292 C   0  0  0  0  0  0  0  0  0  0  0  0
   61.0805    1.8816    1.5569 C   0  0  0  0  0  0  0  0  0  0  0  0
   62.0346    2.7184    2.0316 C   0  0  0  0  0  0  0  0  0  0  0  0
   63.2809    2.2756    1.4843 C   0  0  0  0  0  0  0  0  0  0  0  0
   63.0980    1.1449    0.7228 N   0  0  0  0  0  0  0  0  0  0  0  0
   64.4855    2.9473    1.6497 C   0  0  0  0  0  0  0  0  0  0  0  0
   64.4797    4.2397    2.3746 C   0  0  0  0  0  0  0  0  0  0  0  0
   65.2084    4.3896    3.5567 C   0  0  0  0  0  0  0  0  0  0  0  0
   65.2012    5.5956    4.2385 C   0  0  0  0  0  0  0  0  0  0  0  0
   64.4624    6.6472    3.7216 C   0  0  0  0  0  0  0  0  0  0  0  0
   64.4589    8.1814    4.5712 S   0  0  0  0  0  0  0  0  0  0  0  0
   64.2011    9.2675    3.6714 O   0  0  0  0  0  0  0  0  0  0  0  0
   63.1221    7.9569    5.4651 O   0  0  0  0  0  0  0  0  0  0  0  0
   65.5882    8.2701    5.4477 O   0  0  0  0  0  0  0  0  0  0  0  0
   63.7357    6.5309    2.5477 C   0  0  0  0  0  0  0  0  0  0  0  0
   63.7448    5.3190    1.8775 C   0  0  0  0  0  0  0  0  0  0  0  0
   65.6922    2.4604    1.1649 C   0  0  0  0  0  0  0  0  0  0  0  0
   66.9401    3.1524    1.2776 C   0  0  0  0  0  0  0  0  0  0  0  0
   67.8957    2.3125    0.8114 C   0  0  0  0  0  0  0  0  0  0  0  0
   65.8767    1.2269    0.5832 N   0  0  0  0  0  0  0  0  0  0  0  0
   67.2282    1.1172    0.4047 C   0  0  0  0  0  0  0  0  0  0  0  0
   67.9000   -0.0305   -0.0257 C   0  0  0  0  0  0  0  0  0  0  0  0
   67.2258   -1.1736   -0.4649 C   0  0  0  0  0  0  0  0  0  0  0  0
   67.8906   -2.3715   -0.8682 C   0  0  0  0  0  0  0  0  0  0  0  0
   66.9352   -3.2038   -1.3485 C   0  0  0  0  0  0  0  0  0  0  0  0
   65.6902   -2.5049   -1.2466 C   0  0  0  0  0  0  0  0  0  0  0  0
   65.8757   -1.2746   -0.6585 N   0  0  0  0  0  0  0  0  0  0  0  0
   64.4856   -2.9843   -1.7438 C   0  0  0  0  0  0  0  0  0  0  0  0
   64.4821   -4.2737   -2.4741 C   0  0  0  0  0  0  0  0  0  0  0  0
   65.2216   -4.4205   -3.6500 C   0  0  0  0  0  0  0  0  0  0  0  0
   65.2204   -5.6244   -4.3354 C   0  0  0  0  0  0  0  0  0  0  0  0
   64.4765   -6.6772   -3.8284 C   0  0  0  0  0  0  0  0  0  0  0  0
   64.4829   -8.2097   -4.6812 S   0  0  0  0  0  0  0  0  0  0  0  0
   64.2163   -9.2977   -3.7863 O   0  0  0  0  0  0  0  0  0  0  0  0
   63.1554   -7.9848   -5.5892 O   0  0  0  0  0  0  0  0  0  0  0  0
   65.6215   -8.2959   -5.5459 O   0  0  0  0  0  0  0  0  0  0  0  0
   63.7384   -6.5640   -2.6614 C   0  0  0  0  0  0  0  0  0  0  0  0
   63.7416   -5.3540   -1.9874 C   0  0  0  0  0  0  0  0  0  0  0  0
   63.2822   -2.3093   -1.5841 C   0  0  0  0  0  0  0  0  0  0  0  0
   62.0375   -2.7471   -2.1388 C   0  0  0  0  0  0  0  0  0  0  0  0
   61.0830   -1.9098   -1.6654 C   0  0  0  0  0  0  0  0  0  0  0  0
   61.7480   -0.9599   -0.8316 C   0  0  0  0  0  0  0  0  0  0  0  0
   63.0983   -1.1806   -0.8197 N   0  0  0  0  0  0  0  0  0  0  0  0
   60.0180    1.8989    1.7379 H   0  0  0  0  0  0  0  0  0  0  0  0
   61.9155    3.5593    2.6950 H   0  0  0  0  0  0  0  0  0  0  0  0
   65.7716    3.5509    3.9490 H   0  0  0  0  0  0  0  0  0  0  0  0
   65.7615    5.7231    5.1562 H   0  0  0  0  0  0  0  0  0  0  0  0
   62.8288    8.7951    5.8427 H   0  0  0  0  0  0  0  0  0  0  0  0
   63.1795    7.3777    2.1656 H   0  0  0  0  0  0  0  0  0  0  0  0
   63.1916    5.2092    0.9520 H   0  0  0  0  0  0  0  0  0  0  0  0
   67.0595    4.1520    1.6623 H   0  0  0  0  0  0  0  0  0  0  0  0
   68.9596    2.4729    0.7441 H   0  0  0  0  0  0  0  0  0  0  0  0
   68.9526   -2.5386   -0.7898 H   0  0  0  0  0  0  0  0  0  0  0  0
   67.0530   -4.2027   -1.7355 H   0  0  0  0  0  0  0  0  0  0  0  0
   65.7893   -3.5810   -4.0341 H   0  0  0  0  0  0  0  0  0  0  0  0
   65.7895   -5.7495   -5.2479 H   0  0  0  0  0  0  0  0  0  0  0  0
   62.8675   -8.8230   -5.9710 H   0  0  0  0  0  0  0  0  0  0  0  0
   63.1784   -7.4117   -2.2869 H   0  0  0  0  0  0  0  0  0  0  0  0
   63.1800   -5.2470   -1.0668 H   0  0  0  0  0  0  0  0  0  0  0  0
   61.9195   -3.5856   -2.8056 H   0  0  0  0  0  0  0  0  0  0  0  0
   60.0212   -1.9241   -1.8510 H   0  0  0  0  0  0  0  0  0  0  0  0
   77.9201   -0.0532   -0.0017 Ni  0  0  0  0  0  0  0  0  0  0  0  0
   74.5039   -0.0504   -0.0032 C   0  0  0  0  0  0  0  0  0  0  0  0
   75.1763    0.9367    0.7225 C   0  0  0  0  0  0  0  0  0  0  0  0
   74.5059    1.9307    1.4989 C   0  0  0  0  0  0  0  0  0  0  0  0
   75.4612    2.7734    1.9600 C   0  0  0  0  0  0  0  0  0  0  0  0
   76.7120    2.2946    1.4548 C   0  0  0  0  0  0  0  0  0  0  0  0
   76.5286    1.1408    0.7275 N   0  0  0  0  0  0  0  0  0  0  0  0
   77.9225    2.9488    1.6375 C   0  0  0  0  0  0  0  0  0  0  0  0
   77.9255    4.2498    2.3481 C   0  0  0  0  0  0  0  0  0  0  0  0
   78.6184    4.3909    3.5527 C   0  0  0  0  0  0  0  0  0  0  0  0
   78.6272    5.6047    4.2202 C   0  0  0  0  0  0  0  0  0  0  0  0
   77.9405    6.6727    3.6666 C   0  0  0  0  0  0  0  0  0  0  0  0
   77.9637    8.2182    4.4958 S   0  0  0  0  0  0  0  0  0  0  0  0
   77.7720    9.2996    3.5741 O   0  0  0  0  0  0  0  0  0  0  0  0
   76.5931    8.0546    5.3502 O   0  0  0  0  0  0  0  0  0  0  0  0
   79.0686    8.2790    5.4050 O   0  0  0  0  0  0  0  0  0  0  0  0
   77.2486    6.5645    2.4712 C   0  0  0  0  0  0  0  0  0  0  0  0
   77.2409    5.3446    1.8151 C   0  0  0  0  0  0  0  0  0  0  0  0
   79.1325    2.4383    1.1860 C   0  0  0  0  0  0  0  0  0  0  0  0
   80.3848    3.1195    1.3164 C   0  0  0  0  0  0  0  0  0  0  0  0
   81.3391    2.2716    0.8633 C   0  0  0  0  0  0  0  0  0  0  0  0
   79.3132    1.2013    0.6125 N   0  0  0  0  0  0  0  0  0  0  0  0
   80.6666    1.0817    0.4484 C   0  0  0  0  0  0  0  0  0  0  0  0
   81.3356   -0.0653    0.0167 C   0  0  0  0  0  0  0  0  0  0  0  0
   80.6634   -1.2055   -0.4269 C   0  0  0  0  0  0  0  0  0  0  0  0
   81.3321   -2.3963   -0.8455 C   0  0  0  0  0  0  0  0  0  0  0  0
   80.3775   -3.2310   -1.3220 C   0  0  0  0  0  0  0  0  0  0  0  0
   79.1286   -2.5421   -1.1989 C   0  0  0  0  0  0  0  0  0  0  0  0
   79.3112   -1.3132   -0.6091 N   0  0  0  0  0  0  0  0  0  0  0  0
   77.9199   -3.0406   -1.6672 C   0  0  0  0  0  0  0  0  0  0  0  0
   77.9227   -4.3291   -2.4002 C   0  0  0  0  0  0  0  0  0  0  0  0
   78.6233   -4.4505   -3.6025 C   0  0  0  0  0  0  0  0  0  0  0  0
   78.6269   -5.6498   -4.2958 C   0  0  0  0  0  0  0  0  0  0  0  0
   77.9272   -6.7235   -3.7700 C   0  0  0  0  0  0  0  0  0  0  0  0
   77.9379   -8.2492   -4.6352 S   0  0  0  0  0  0  0  0  0  0  0  0
   77.7173   -9.3489   -3.7421 O   0  0  0  0  0  0  0  0  0  0  0  0
   76.5815   -8.0423   -5.5029 O   0  0  0  0  0  0  0  0  0  0  0  0
   79.0531   -8.3066   -5.5320 O   0  0  0  0  0  0  0  0  0  0  0  0
   77.2296   -6.6357   -2.5762 C   0  0  0  0  0  0  0  0  0  0  0  0
   77.2277   -5.4301   -1.8940 C   0  0  0  0  0  0  0  0  0  0  0  0
   76.7102   -2.3857   -1.4808 C   0  0  0  0  0  0  0  0  0  0  0  0
   75.4590   -2.8579   -1.9911 C   0  0  0  0  0  0  0  0  0  0  0  0
   74.5041   -2.0213   -1.5184 C   0  0  0  0  0  0  0  0  0  0  0  0
   75.1753   -1.0355   -0.7325 C   0  0  0  0  0  0  0  0  0  0  0  0
   76.5275   -1.2400   -0.7403 N   0  0  0  0  0  0  0  0  0  0  0  0
   73.4406    1.9666    1.6595 H   0  0  0  0  0  0  0  0  0  0  0  0
   75.3404    3.6403    2.5887 H   0  0  0  0  0  0  0  0  0  0  0  0
   79.1424    3.5400    3.9721 H   0  0  0  0  0  0  0  0  0  0  0  0
   79.1613    5.7260    5.1542 H   0  0  0  0  0  0  0  0  0  0  0  0
   76.3028    8.9127    5.6828 H   0  0  0  0  0  0  0  0  0  0  0  0
   76.7327    7.4237    2.0610 H   0  0  0  0  0  0  0  0  0  0  0  0
   76.7153    5.2409    0.8731 H   0  0  0  0  0  0  0  0  0  0  0  0
   80.5074    4.1183    1.7020 H   0  0  0  0  0  0  0  0  0  0  0  0
   82.4049    2.4230    0.8095 H   0  0  0  0  0  0  0  0  0  0  0  0
   82.3960   -2.5563   -0.7794 H   0  0  0  0  0  0  0  0  0  0  0  0
   80.4972   -4.2260   -1.7182 H   0  0  0  0  0  0  0  0  0  0  0  0
   79.1566   -3.5950   -4.0002 H   0  0  0  0  0  0  0  0  0  0  0  0
   79.1658   -5.7553   -5.2289 H   0  0  0  0  0  0  0  0  0  0  0  0
   76.2885   -8.8849   -5.8710 H   0  0  0  0  0  0  0  0  0  0  0  0
   76.7043   -7.4992   -2.1879 H   0  0  0  0  0  0  0  0  0  0  0  0
   76.6973   -5.3427   -0.9530 H   0  0  0  0  0  0  0  0  0  0  0  0
   75.3372   -3.7170   -2.6303 H   0  0  0  0  0  0  0  0  0  0  0  0
   73.4386   -2.0555   -1.6783 H   0  0  0  0  0  0  0  0  0  0  0  0
  2  3  4  0  0  0  0
  3  4  4  0  0  0  0
  4  5  2  0  0  0  0
  5  6  4  0  0  0  0
  1  7  1  0  0  0  0
  3  7  4  0  0  0  0
  6  7  4  0  0  0  0
  6  8  4  0  0  0  0
  8  9  1  0  0  0  0
  9 10  4  0  0  0  0
 10 11  4  0  0  0  0
 11 12  4  0  0  0  0
 12 13  1  0  0  0  0
 13 14  2  0  0  0  0
 13 15  1  0  0  0  0
 13 16  2  0  0  0  0
 12 17  4  0  0  0  0
  9 18  4  0  0  0  0
 17 18  4  0  0  0  0
  8 19  4  0  0  0  0
 19 20  4  0  0  0  0
 20 21  2  0  0  0  0
  1 22  1  0  0  0  0
 19 22  4  0  0  0  0
 21 23  4  0  0  0  0
 22 23  4  0  0  0  0
 23 24  4  0  0  0  0
 24 25  4  0  0  0  0
 25 26  4  0  0  0  0
 26 27  2  0  0  0  0
 27 28  4  0  0  0  0
  1 29  1  0  0  0  0
 25 29  4  0  0  0  0
 28 29  4  0  0  0  0
 28 30  4  0  0  0  0
 30 31  1  0  0  0  0
 31 32  4  0  0  0  0
 32 33  4  0  0  0  0
 33 34  4  0  0  0  0
 34 35  1  0  0  0  0
 35 36  2  0  0  0  0
 35 37  1  0  0  0  0
 35 38  2  0  0  0  0
 34 39  4  0  0  0  0
 31 40  4  0  0  0  0
 39 40  4  0  0  0  0
 30 41  4  0  0  0  0
 41 42  4  0  0  0  0
 42 43  2  0  0  0  0
  2 44  4  0  0  0  0
 43 44  4  0  0  0  0
  1 45  1  0  0  0  0
 41 45  4  0  0  0  0
 44 45  4  0  0  0  0
  2 46  1  0  0  0  0
  4 47  1  0  0  0  0
  5 48  1  0  0  0  0
 10 49  1  0  0  0  0
 11 50  1  0  0  0  0
 15 51  1  0  0  0  0
 17 52  1  0  0  0  0
 18 53  1  0  0  0  0
 20 54  1  0  0  0  0
 21 55  1  0  0  0  0
 26 56  1  0  0  0  0
 27 57  1  0  0  0  0
 32 58  1  0  0  0  0
 33 59  1  0  0  0  0
 37 60  1  0  0  0  0
 39 61  1  0  0  0  0
 40 62  1  0  0  0  0
 42 63  1  0  0  0  0
 43 64  1  0  0  0  0
 66 67  4  0  0  0  0
 67 68  4  0  0  0  0
 68 69  2  0  0  0  0
 69 70  4  0  0  0  0
 65 71  1  0  0  0  0
 67 71  4  0  0  0  0
 70 71  4  0  0  0  0
 70 72  4  0  0  0  0
 72 73  1  0  0  0  0
 73 74  4  0  0  0  0
 74 75  4  0  0  0  0
 75 76  4  0  0  0  0
 76 77  1  0  0  0  0
 77 78  2  0  0  0  0
 77 79  1  0  0  0  0
 77 80  2  0  0  0  0
 76 81  4  0  0  0  0
 73 82  4  0  0  0  0
 81 82  4  0  0  0  0
 72 83  4  0  0  0  0
 83 84  4  0  0  0  0
 84 85  2  0  0  0  0
 65 86  1  0  0  0  0
 83 86  4  0  0  0  0
 85 87  4  0  0  0  0
 86 87  4  0  0  0  0
 87 88  4  0  0  0  0
 88 89  4  0  0  0  0
 89 90  4  0  0  0  0
 90 91  2  0  0  0  0
 91 92  4  0  0  0  0
 65 93  1  0  0  0  0
 89 93  4  0  0  0  0
 92 93  4  0  0  0  0
 92 94  4  0  0  0  0
 94 95  1  0  0  0  0
 95 96  4  0  0  0  0
 96 97  4  0  0  0  0
 97 98  4  0  0  0  0
 98 99  1  0  0  0  0
 99100  2  0  0  0  0
 99101  1  0  0  0  0
 99102  2  0  0  0  0
 98103  4  0  0  0  0
 95104  4  0  0  0  0
103104  4  0  0  0  0
 94105  4  0  0  0  0
105106  4  0  0  0  0
106107  2  0  0  0  0
 66108  4  0  0  0  0
107108  4  0  0  0  0
 65109  1  0  0  0  0
105109  4  0  0  0  0
108109  4  0  0  0  0
 66110  1  0  0  0  0
 68111  1  0  0  0  0
 69112  1  0  0  0  0
 74113  1  0  0  0  0
 75114  1  0  0  0  0
 79115  1  0  0  0  0
 81116  1  0  0  0  0
 82117  1  0  0  0  0
 84118  1  0  0  0  0
 85119  1  0  0  0  0
 90120  1  0  0  0  0
 91121  1  0  0  0  0
 96122  1  0  0  0  0
 97123  1  0  0  0  0
101124  1  0  0  0  0
103125  1  0  0  0  0
104126  1  0  0  0  0
106127  1  0  0  0  0
107128  1  0  0  0  0
 24130  4  0  0  0  0
129130  3  0  0  0  0
129131  4  0  0  0  0
131132  3  0  0  0  0
133134  3  0  0  0  0
133135  4  0  0  0  0
135136  3  0  0  0  0
137138  3  0  0  0  0
137139  4  0  0  0  0
 88140  1  0  0  0  0
139140  3  0  0  0  0
132142  4  0  0  0  0
142143  4  0  0  0  0
143144  4  0  0  0  0
144145  2  0  0  0  0
145146  4  0  0  0  0
141147  1  0  0  0  0
143147  4  0  0  0  0
146147  4  0  0  0  0
146148  4  0  0  0  0
148149  1  0  0  0  0
149150  4  0  0  0  0
150151  4  0  0  0  0
151152  4  0  0  0  0
152153  1  0  0  0  0
153154  2  0  0  0  0
153155  1  0  0  0  0
153156  2  0  0  0  0
152157  4  0  0  0  0
149158  4  0  0  0  0
157158  4  0  0  0  0
148159  4  0  0  0  0
159160  4  0  0  0  0
160161  2  0  0  0  0
141162  1  0  0  0  0
159162  4  0  0  0  0
161163  4  0  0  0  0
162163  4  0  0  0  0
134164  4  0  0  0  0
163164  4  0  0  0  0
164165  4  0  0  0  0
165166  4  0  0  0  0
166167  2  0  0  0  0
167168  4  0  0  0  0
141169  1  0  0  0  0
165169  4  0  0  0  0
168169  4  0  0  0  0
168170  4  0  0  0  0
170171  1  0  0  0  0
171172  4  0  0  0  0
172173  4  0  0  0  0
173174  4  0  0  0  0
174175  1  0  0  0  0
175176  2  0  0  0  0
175177  1  0  0  0  0
175178  2  0  0  0  0
174179  4  0  0  0  0
171180  4  0  0  0  0
179180  4  0  0  0  0
170181  4  0  0  0  0
181182  4  0  0  0  0
182183  2  0  0  0  0
142184  4  0  0  0  0
183184  4  0  0  0  0
141185  1  0  0  0  0
181185  4  0  0  0  0
184185  4  0  0  0  0
144186  1  0  0  0  0
145187  1  0  0  0  0
150188  1  0  0  0  0
151189  1  0  0  0  0
155190  1  0  0  0  0
157191  1  0  0  0  0
158192  1  0  0  0  0
160193  1  0  0  0  0
161194  1  0  0  0  0
166195  1  0  0  0  0
167196  1  0  0  0  0
172197  1  0  0  0  0
173198  1  0  0  0  0
177199  1  0  0  0  0
179200  1  0  0  0  0
180201  1  0  0  0  0
182202  1  0  0  0  0
183203  1  0  0  0  0
136205  4  0  0  0  0
205206  4  0  0  0  0
206207  4  0  0  0  0
207208  2  0  0  0  0
208209  4  0  0  0  0
204210  1  0  0  0  0
206210  4  0  0  0  0
209210  4  0  0  0  0
209211  4  0  0  0  0
211212  1  0  0  0  0
212213  4  0  0  0  0
213214  4  0  0  0  0
214215  4  0  0  0  0
215216  1  0  0  0  0
216217  2  0  0  0  0
216218  1  0  0  0  0
216219  2  0  0  0  0
215220  4  0  0  0  0
212221  4  0  0  0  0
220221  4  0  0  0  0
211222  4  0  0  0  0
222223  4  0  0  0  0
223224  2  0  0  0  0
204225  1  0  0  0  0
222225  4  0  0  0  0
224226  4  0  0  0  0
225226  4  0  0  0  0
138227  1  0  0  0  0
226227  4  0  0  0  0
227228  4  0  0  0  0
228229  4  0  0  0  0
229230  2  0  0  0  0
230231  4  0  0  0  0
204232  1  0  0  0  0
228232  4  0  0  0  0
231232  4  0  0  0  0
231233  4  0  0  0  0
233234  1  0  0  0  0
234235  4  0  0  0  0
235236  4  0  0  0  0
236237  4  0  0  0  0
237238  1  0  0  0  0
238239  2  0  0  0  0
238240  1  0  0  0  0
238241  2  0  0  0  0
237242  4  0  0  0  0
234243  4  0  0  0  0
242243  4  0  0  0  0
233244  4  0  0  0  0
244245  4  0  0  0  0
245246  2  0  0  0  0
205247  4  0  0  0  0
246247  4  0  0  0  0
204248  1  0  0  0  0
244248  4  0  0  0  0
247248  4  0  0  0  0
207249  1  0  0  0  0
208250  1  0  0  0  0
213251  1  0  0  0  0
214252  1  0  0  0  0
218253  1  0  0  0  0
220254  1  0  0  0  0
221255  1  0  0  0  0
223256  1  0  0  0  0
224257  1  0  0  0  0
229258  1  0  0  0  0
230259  1  0  0  0  0
235260  1  0  0  0  0
236261  1  0  0  0  0
240262  1  0  0  0  0
242263  1  0  0  0  0
243264  1  0  0  0  0
245265  1  0  0  0  0
246266  1  0  0  0  0
M  END
