186

C 30.461687 0.032720 0.000989
C 31.186541 -1.021215 0.892273
C 30.571090 -2.008391 1.628357
C 31.592517 -2.712529 2.316151
C 32.798194 -2.125077 1.982703
N 32.541214 -1.121563 1.082819
C 34.226247 -2.510438 2.552971
C 34.275749 -3.457726 3.691726
C 34.525136 -4.816124 3.473384
C 34.577743 -5.706716 4.549820
C 34.423190 -5.246413 5.860311
N 34.384532 -6.157633 6.930379
C 34.099603 -3.901881 6.069170
C 34.048233 -3.007563 4.995645
C 35.354897 -1.953418 2.035332
C 36.664192 -2.233798 2.588073
C 37.565719 -1.537440 1.905915
N 35.547936 -1.075793 0.999963
C 36.882101 -0.785901 0.871752
C 37.552007 0.019059 0.003916
C 36.777475 0.799092 -1.142626
C 37.331855 1.292253 -2.307493
C 36.306800 1.959700 -3.021656
C 35.150101 1.843750 -2.281543
N 35.436337 1.098227 -1.161552
C 33.733052 2.446594 -2.661205
C 33.683271 3.528356 -3.669507
C 33.463455 3.228447 -5.017603
C 33.414382 4.250916 -5.969449
C 33.537520 5.588043 -5.582100
N 33.577324 6.604187 -6.553034
C 33.827508 5.878928 -4.245273
C 33.879336 4.858937 -3.289931
C 32.610883 1.971623 -2.060561
C 31.285614 2.484083 -2.361417
C 30.402036 1.813331 -1.628634
C 31.127262 0.854098 -0.832470
N 32.449722 0.994512 -1.117694
H 29.382685 0.098396 0.070252
H 29.508428 -2.192542 1.675574
H 31.460498 -3.541463 2.996337
H 33.244984 -0.543678 0.629860
H 34.672963 -5.169252 2.456126
H 34.751435 -6.758605 4.348152
H 34.613005 -5.715194 7.814933
H 34.950231 -6.981152 6.750713
H 33.893443 -3.528680 7.067108
H 33.823733 -1.955952 5.161883
H 36.880255 -2.882073 3.418145
H 38.621918 -1.550736 2.102190
H 38.363318 1.196117 -2.609345
H 36.403180 2.470194 -3.967899
H 34.747615 0.781511 -0.484021
H 33.337921 2.189947 -5.314475
H 33.270086 3.986297 -7.011399
H 33.030117 6.367625 -7.373426
H 33.326586 7.508186 -6.166942
H 34.007148 6.900605 -3.926555
H 34.077438 5.088458 -2.245133
H 31.053976 3.270532 -3.056726
H 29.337018 1.956814 -1.624399
C 59.620461 0.019339 0.017883
C 58.895606 0.645516 -1.212184
C 59.511057 1.135913 -2.341719
C 58.489630 1.644133 -3.184679
C 57.283953 1.454109 -2.536468
N 57.540933 0.808012 -1.353510
C 55.855900 1.920947 -3.042207
C 55.806398 2.812444 -4.225148
C 55.557012 2.288758 -5.497418
C 55.504405 3.132580 -6.610896
C 55.658958 4.513665 -6.463007
N 55.697616 5.346563 -7.595105
C 55.982544 5.024943 -5.202062
C 56.033915 4.184808 -4.085623
C 54.727250 1.544659 -2.381427
C 53.417955 2.018482 -2.780961
C 52.516428 1.513965 -1.946865
N 54.534211 0.737842 -1.289978
C 53.200046 0.679442 -0.978426
C 52.530140 0.019059 0.003916
C 53.304673 -0.918329 1.025832
C 52.750292 -1.939264 1.772701
C 53.775347 -2.481557 2.585987
C 54.932046 -1.787680 2.303592
N 54.645810 -0.868233 1.321350
C 56.349095 -2.019164 2.977372
C 56.398876 -2.752874 4.261332
C 56.618692 -4.133824 4.278186
C 56.667765 -4.826161 5.491496
C 56.544627 -4.142834 6.704349
N 56.504823 -4.855200 7.915875
C 56.254639 -2.774920 6.681292
C 56.202812 -2.078613 5.469592
C 57.471264 -1.543284 2.377448
C 58.796533 -1.718759 2.945196
C 59.680111 -1.159098 2.124429
C 58.954886 -0.603820 1.008333
N 57.632426 -0.849297 1.210346
H 60.699463 0.101805 0.065949
H 60.573719 1.139693 -2.531790
H 58.621649 2.116363 -4.147375
H 56.837164 0.499463 -0.687237
H 55.409185 1.217660 -5.608148
H 55.330713 2.695332 -7.588625
H 55.469142 6.308942 -7.367042
H 55.131916 4.983041 -8.355576
H 56.188704 6.081833 -5.067367
H 56.258414 4.587505 -3.100049
H 53.201893 2.677994 -3.602134
H 51.460229 1.701976 -2.004765
H 51.718830 -2.255112 1.748262
H 53.678968 -3.285711 3.299651
H 55.334532 -0.281261 0.857861
H 56.744227 -4.660679 3.335295
H 56.812062 -5.901022 5.472577
H 57.052030 -5.707967 7.873518
H 56.755562 -4.272307 8.707403
H 56.074999 -2.230655 7.602801
H 56.004710 -1.009019 5.453694
H 59.028171 -2.215442 3.870001
H 60.745129 -1.122110 2.263127
C 39.278134 0.019059 0.003916
C 40.500051 0.019059 0.003916
C 49.582096 0.019059 0.003916
C 50.804014 0.019059 0.003916
C 41.464860 -0.040024 -0.008223
C 42.257505 -0.626182 1.232408
C 41.749012 -1.436615 2.227239
C 42.785626 -1.649128 3.171812
C 43.896645 -0.968252 2.720342
N 43.586798 -0.413102 1.503985
C 45.286371 -0.837088 3.468123
C 45.280512 -0.929741 4.946800
C 45.740079 -2.083620 5.590569
C 45.731403 -2.165701 6.986303
C 45.301789 -1.083053 7.758804
N 45.208280 -1.204022 9.156143
C 44.772303 0.037590 7.112495
C 44.780561 0.124314 5.716787
C 46.421098 -0.599795 2.758108
C 47.708070 -0.410596 3.395474
C 48.615745 -0.191651 2.450309
N 46.629063 -0.471741 1.412445
C 47.953438 -0.229892 1.162022
C 48.617544 -0.040024 -0.008223
C 47.824886 -0.089666 -1.379419
C 48.333192 -0.442813 -2.613099
C 47.296597 -0.265632 -3.564961
C 46.185773 0.182716 -2.881697
N 46.495724 0.213697 -1.545035
C 44.796079 0.598109 -3.517149
C 44.801760 1.095428 -4.912736
C 45.299384 2.368497 -5.205104
C 45.307244 2.838508 -6.522155
C 44.779713 2.061948 -7.557823
N 44.872980 2.501242 -8.889837
C 44.352452 0.761740 -7.274326
C 44.344093 0.287499 -5.959084
C 43.661376 0.536360 -2.771060
C 42.374386 0.961270 -3.282355
C 41.466687 0.789846 -2.327450
C 42.128998 0.246993 -1.158484
N 43.453426 0.123704 -1.483848
H 40.739548 -1.814754 2.282296
H 42.723299 -2.216290 4.088535
H 44.248780 0.045226 0.884450
H 46.100620 -2.916292 4.990602
H 46.072969 -3.081697 7.456716
H 45.900704 -1.843799 9.530631
H 45.222709 -0.300959 9.618252
H 44.354869 0.861018 7.682522
H 44.391388 1.008686 5.217283
H 47.903509 -0.430914 4.452619
H 49.659985 -0.013912 2.631358
H 49.342526 -0.769114 -2.812703
H 47.358776 -0.425867 -4.630972
H 45.833827 0.391113 -0.795015
H 45.686978 2.985402 -4.397463
H 45.722837 3.820689 -6.721658
H 44.181870 2.059060 -9.486407
H 44.856344 3.513279 -8.959009
H 44.012454 0.104385 -8.067606
H 43.985307 -0.714818 -5.735673
H 42.178972 1.359152 -4.261993
H 40.422415 1.024337 -2.423886
