 xtb: 6.5.1 (b24c23e)
          07292211243D

186206  0     0  0            999 V2000
   30.7679   -0.1028    0.0862 C   0  0  0  0  0  0  0  0  0  0  0  0
   31.3810   -0.9736    0.9778 C   0  0  0  0  0  0  0  0  0  0  0  0
   30.7349   -1.8838    1.8600 C   0  0  0  0  0  0  0  0  0  0  0  0
   31.7014   -2.5428    2.5670 C   0  0  0  0  0  0  0  0  0  0  0  0
   32.9690   -2.0489    2.1467 C   0  0  0  0  0  0  0  0  0  0  0  0
   32.7249   -1.1126    1.1819 N   0  0  0  0  0  0  0  0  0  0  0  0
   34.2336   -2.4453    2.5970 C   0  0  0  0  0  0  0  0  0  0  0  0
   34.2673   -3.4610    3.6766 C   0  0  0  0  0  0  0  0  0  0  0  0
   34.8956   -4.6929    3.4783 C   0  0  0  0  0  0  0  0  0  0  0  0
   34.9280   -5.6428    4.4837 C   0  0  0  0  0  0  0  0  0  0  0  0
   34.3413   -5.3730    5.7227 C   0  0  0  0  0  0  0  0  0  0  0  0
   34.3396   -6.3349    6.7186 N   0  0  0  0  0  0  0  0  0  0  0  0
   33.7047   -4.1462    5.9269 C   0  0  0  0  0  0  0  0  0  0  0  0
   33.6688   -3.2055    4.9126 C   0  0  0  0  0  0  0  0  0  0  0  0
   35.4475   -1.9559    2.1067 C   0  0  0  0  0  0  0  0  0  0  0  0
   36.7441   -2.3516    2.6246 C   0  0  0  0  0  0  0  0  0  0  0  0
   37.6651   -1.6789    1.9037 C   0  0  0  0  0  0  0  0  0  0  0  0
   35.6034   -1.0440    1.1074 N   0  0  0  0  0  0  0  0  0  0  0  0
   36.9321   -0.8603    0.9588 C   0  0  0  0  0  0  0  0  0  0  0  0
   37.5698   -0.0180    0.0257 C   0  0  0  0  0  0  0  0  0  0  0  0
   36.9297    0.8198   -0.9071 C   0  0  0  0  0  0  0  0  0  0  0  0
   37.5661    1.6607   -1.8573 C   0  0  0  0  0  0  0  0  0  0  0  0
   36.5945    2.3193   -2.5589 C   0  0  0  0  0  0  0  0  0  0  0  0
   35.3317    1.9113   -2.0481 C   0  0  0  0  0  0  0  0  0  0  0  0
   35.5860    0.9983   -1.0583 N   0  0  0  0  0  0  0  0  0  0  0  0
   34.0682    2.3357   -2.4753 C   0  0  0  0  0  0  0  0  0  0  0  0
   34.0307    3.3564   -3.5490 C   0  0  0  0  0  0  0  0  0  0  0  0
   33.3946    3.0873   -4.7635 C   0  0  0  0  0  0  0  0  0  0  0  0
   33.3537    4.0365   -5.7692 C   0  0  0  0  0  0  0  0  0  0  0  0
   33.9386    5.2902   -5.5742 C   0  0  0  0  0  0  0  0  0  0  0  0
   33.9312    6.2299   -6.5911 N   0  0  0  0  0  0  0  0  0  0  0  0
   34.5821    5.5655   -4.3650 C   0  0  0  0  0  0  0  0  0  0  0  0
   34.6269    4.6069   -3.3682 C   0  0  0  0  0  0  0  0  0  0  0  0
   32.8530    1.8697   -1.9613 C   0  0  0  0  0  0  0  0  0  0  0  0
   31.5488    2.3664   -2.3714 C   0  0  0  0  0  0  0  0  0  0  0  0
   30.6351    1.6791   -1.6564 C   0  0  0  0  0  0  0  0  0  0  0  0
   31.3801    0.7734   -0.8006 C   0  0  0  0  0  0  0  0  0  0  0  0
   32.7121    0.9215   -1.0048 N   0  0  0  0  0  0  0  0  0  0  0  0
   29.6826   -0.1129    0.0917 H   0  0  0  0  0  0  0  0  0  0  0  0
   29.6665   -2.0137    1.9297 H   0  0  0  0  0  0  0  0  0  0  0  0
   31.5547   -3.3120    3.3079 H   0  0  0  0  0  0  0  0  0  0  0  0
   33.4463   -0.6010    0.6849 H   0  0  0  0  0  0  0  0  0  0  0  0
   35.3458   -4.9133    2.5166 H   0  0  0  0  0  0  0  0  0  0  0  0
   35.4102   -6.5993    4.3143 H   0  0  0  0  0  0  0  0  0  0  0  0
   34.2132   -5.9788    7.6527 H   0  0  0  0  0  0  0  0  0  0  0  0
   35.0696   -7.0253    6.6429 H   0  0  0  0  0  0  0  0  0  0  0  0
   33.2435   -3.9324    6.8850 H   0  0  0  0  0  0  0  0  0  0  0  0
   33.1899   -2.2479    5.0862 H   0  0  0  0  0  0  0  0  0  0  0  0
   36.9080   -3.0408    3.4371 H   0  0  0  0  0  0  0  0  0  0  0  0
   38.7390   -1.7172    1.9877 H   0  0  0  0  0  0  0  0  0  0  0  0
   38.6327    1.7465   -1.9839 H   0  0  0  0  0  0  0  0  0  0  0  0
   36.7378    3.0194   -3.3656 H   0  0  0  0  0  0  0  0  0  0  0  0
   34.8684    0.5219   -0.5219 H   0  0  0  0  0  0  0  0  0  0  0  0
   32.9454    2.1136   -4.9258 H   0  0  0  0  0  0  0  0  0  0  0  0
   32.8659    3.8115   -6.7115 H   0  0  0  0  0  0  0  0  0  0  0  0
   33.1979    6.1126   -7.2721 H   0  0  0  0  0  0  0  0  0  0  0  0
   34.0559    7.1831   -6.2893 H   0  0  0  0  0  0  0  0  0  0  0  0
   35.0412    6.5357   -4.2090 H   0  0  0  0  0  0  0  0  0  0  0  0
   35.1101    4.8366   -2.4248 H   0  0  0  0  0  0  0  0  0  0  0  0
   31.3797    3.1460   -3.0969 H   0  0  0  0  0  0  0  0  0  0  0  0
   29.5596    1.7631   -1.6757 H   0  0  0  0  0  0  0  0  0  0  0  0
   59.3042    0.0239   -0.1439 C   0  0  0  0  0  0  0  0  0  0  0  0
   58.6927    0.6704   -1.2106 C   0  0  0  0  0  0  0  0  0  0  0  0
   59.3413    1.2881   -2.3161 C   0  0  0  0  0  0  0  0  0  0  0  0
   58.3779    1.8260   -3.1231 C   0  0  0  0  0  0  0  0  0  0  0  0
   57.1101    1.5637   -2.5308 C   0  0  0  0  0  0  0  0  0  0  0  0
   57.3503    0.8528   -1.3887 N   0  0  0  0  0  0  0  0  0  0  0  0
   55.8477    1.9418   -3.0037 C   0  0  0  0  0  0  0  0  0  0  0  0
   55.8134    2.7619   -4.2371 C   0  0  0  0  0  0  0  0  0  0  0  0
   55.1246    2.3183   -5.3691 C   0  0  0  0  0  0  0  0  0  0  0  0
   55.0911    3.0798   -6.5235 C   0  0  0  0  0  0  0  0  0  0  0  0
   55.7379    4.3176   -6.5663 C   0  0  0  0  0  0  0  0  0  0  0  0
   55.7386    5.0652   -7.7316 N   0  0  0  0  0  0  0  0  0  0  0  0
   56.4335    4.7665   -5.4408 C   0  0  0  0  0  0  0  0  0  0  0  0
   56.4695    3.9942   -4.2933 C   0  0  0  0  0  0  0  0  0  0  0  0
   54.6352    1.6075   -2.3936 C   0  0  0  0  0  0  0  0  0  0  0  0
   53.3423    2.0832   -2.8501 C   0  0  0  0  0  0  0  0  0  0  0  0
   52.4227    1.5452   -2.0217 C   0  0  0  0  0  0  0  0  0  0  0  0
   54.4800    0.8188   -1.2946 N   0  0  0  0  0  0  0  0  0  0  0  0
   53.1541    0.7498   -1.0559 C   0  0  0  0  0  0  0  0  0  0  0  0
   52.5168    0.0251   -0.0284 C   0  0  0  0  0  0  0  0  0  0  0  0
   53.1533   -0.6995    0.9969 C   0  0  0  0  0  0  0  0  0  0  0  0
   52.5133   -1.4731    2.0005 C   0  0  0  0  0  0  0  0  0  0  0  0
   53.4818   -2.0052    2.8065 C   0  0  0  0  0  0  0  0  0  0  0  0
   54.7450   -1.5667    2.3230 C   0  0  0  0  0  0  0  0  0  0  0  0
   54.4950   -0.7904    1.2219 N   0  0  0  0  0  0  0  0  0  0  0  0
   56.0075   -1.8739    2.8443 C   0  0  0  0  0  0  0  0  0  0  0  0
   56.0429   -2.6900    4.0796 C   0  0  0  0  0  0  0  0  0  0  0  0
   56.7131   -3.9160    4.1039 C   0  0  0  0  0  0  0  0  0  0  0  0
   56.7491   -4.6831    5.2546 C   0  0  0  0  0  0  0  0  0  0  0  0
   56.1243   -4.2300    6.4193 C   0  0  0  0  0  0  0  0  0  0  0  0
   56.1267   -5.0114    7.5620 N   0  0  0  0  0  0  0  0  0  0  0  0
   55.4468   -3.0081    6.4024 C   0  0  0  0  0  0  0  0  0  0  0  0
   55.4074   -2.2520    5.2444 C   0  0  0  0  0  0  0  0  0  0  0  0
   57.2220   -1.4687    2.2787 C   0  0  0  0  0  0  0  0  0  0  0  0
   58.5265   -1.7361    2.8636 C   0  0  0  0  0  0  0  0  0  0  0  0
   59.4390   -1.2089    2.0220 C   0  0  0  0  0  0  0  0  0  0  0  0
   58.6928   -0.6084    0.9310 C   0  0  0  0  0  0  0  0  0  0  0  0
   57.3612   -0.7721    1.1257 N   0  0  0  0  0  0  0  0  0  0  0  0
   60.3895    0.0197   -0.1591 H   0  0  0  0  0  0  0  0  0  0  0  0
   60.4091    1.3063   -2.4665 H   0  0  0  0  0  0  0  0  0  0  0  0
   58.5273    2.3498   -4.0533 H   0  0  0  0  0  0  0  0  0  0  0  0
   56.6265    0.5085   -0.7667 H   0  0  0  0  0  0  0  0  0  0  0  0
   54.6277    1.3546   -5.3470 H   0  0  0  0  0  0  0  0  0  0  0  0
   54.5618    2.7196   -7.3989 H   0  0  0  0  0  0  0  0  0  0  0  0
   55.9196    6.0483   -7.6058 H   0  0  0  0  0  0  0  0  0  0  0  0
   54.9775    4.8698   -8.3622 H   0  0  0  0  0  0  0  0  0  0  0  0
   56.9402    5.7250   -5.4687 H   0  0  0  0  0  0  0  0  0  0  0  0
   56.9935    4.3606   -3.4172 H   0  0  0  0  0  0  0  0  0  0  0  0
   53.1812    2.7535   -3.6789 H   0  0  0  0  0  0  0  0  0  0  0  0
   51.3527    1.6769   -2.0326 H   0  0  0  0  0  0  0  0  0  0  0  0
   51.4474   -1.6111    2.0820 H   0  0  0  0  0  0  0  0  0  0  0  0
   53.3366   -2.6571    3.6525 H   0  0  0  0  0  0  0  0  0  0  0  0
   55.2156   -0.3606    0.6513 H   0  0  0  0  0  0  0  0  0  0  0  0
   57.1919   -4.2798    3.2014 H   0  0  0  0  0  0  0  0  0  0  0  0
   57.2632   -5.6381    5.2571 H   0  0  0  0  0  0  0  0  0  0  0  0
   56.8781   -5.6802    7.6183 H   0  0  0  0  0  0  0  0  0  0  0  0
   55.9637   -4.5100    8.4206 H   0  0  0  0  0  0  0  0  0  0  0  0
   54.9568   -2.6526    7.3023 H   0  0  0  0  0  0  0  0  0  0  0  0
   54.8972   -1.2948    5.2465 H   0  0  0  0  0  0  0  0  0  0  0  0
   58.6968   -2.2436    3.7996 H   0  0  0  0  0  0  0  0  0  0  0  0
   60.5143   -1.2018    2.1097 H   0  0  0  0  0  0  0  0  0  0  0  0
   38.9801   -0.0024    0.0168 C   0  0  0  0  0  0  0  0  0  0  0  0
   40.1976    0.0115    0.0119 C   0  0  0  0  0  0  0  0  0  0  0  0
   49.8905    0.0147   -0.0063 C   0  0  0  0  0  0  0  0  0  0  0  0
   51.1078    0.0209   -0.0140 C   0  0  0  0  0  0  0  0  0  0  0  0
   41.6072    0.0232    0.0127 C   0  0  0  0  0  0  0  0  0  0  0  0
   42.2371   -0.2753    1.2362 C   0  0  0  0  0  0  0  0  0  0  0  0
   41.5948   -0.5856    2.4622 C   0  0  0  0  0  0  0  0  0  0  0  0
   42.5625   -0.7763    3.4102 C   0  0  0  0  0  0  0  0  0  0  0  0
   43.8266   -0.5743    2.7933 C   0  0  0  0  0  0  0  0  0  0  0  0
   43.5795   -0.2850    1.4774 N   0  0  0  0  0  0  0  0  0  0  0  0
   45.0859   -0.6603    3.4011 C   0  0  0  0  0  0  0  0  0  0  0  0
   45.0997   -0.9405    4.8572 C   0  0  0  0  0  0  0  0  0  0  0  0
   45.7346   -2.0805    5.3563 C   0  0  0  0  0  0  0  0  0  0  0  0
   45.7495   -2.3477    6.7137 C   0  0  0  0  0  0  0  0  0  0  0  0
   45.1388   -1.4657    7.6087 C   0  0  0  0  0  0  0  0  0  0  0  0
   45.1187   -1.7488    8.9640 N   0  0  0  0  0  0  0  0  0  0  0  0
   44.4977   -0.3257    7.1176 C   0  0  0  0  0  0  0  0  0  0  0  0
   44.4791   -0.0712    5.7577 C   0  0  0  0  0  0  0  0  0  0  0  0
   46.3115   -0.4995    2.7513 C   0  0  0  0  0  0  0  0  0  0  0  0
   47.5939   -0.5214    3.4311 C   0  0  0  0  0  0  0  0  0  0  0  0
   48.5341   -0.3381    2.4805 C   0  0  0  0  0  0  0  0  0  0  0  0
   46.4933   -0.2831    1.4195 N   0  0  0  0  0  0  0  0  0  0  0  0
   47.8253   -0.1943    1.2251 C   0  0  0  0  0  0  0  0  0  0  0  0
   48.4821    0.0188   -0.0029 C   0  0  0  0  0  0  0  0  0  0  0  0
   47.8530    0.2482   -1.2414 C   0  0  0  0  0  0  0  0  0  0  0  0
   48.4948    0.4152   -2.4953 C   0  0  0  0  0  0  0  0  0  0  0  0
   47.5272    0.6284   -3.4391 C   0  0  0  0  0  0  0  0  0  0  0  0
   46.2649    0.6026   -2.7869 C   0  0  0  0  0  0  0  0  0  0  0  0
   46.5120    0.3587   -1.4621 N   0  0  0  0  0  0  0  0  0  0  0  0
   45.0055    0.7687   -3.3770 C   0  0  0  0  0  0  0  0  0  0  0  0
   44.9931    1.0763   -4.8277 C   0  0  0  0  0  0  0  0  0  0  0  0
   45.6150    2.2275   -5.3169 C   0  0  0  0  0  0  0  0  0  0  0  0
   45.5992    2.5230   -6.6687 C   0  0  0  0  0  0  0  0  0  0  0  0
   44.9607    1.6639   -7.5665 C   0  0  0  0  0  0  0  0  0  0  0  0
   44.9832    1.9311   -8.9249 N   0  0  0  0  0  0  0  0  0  0  0  0
   44.3508    0.5018   -7.0872 C   0  0  0  0  0  0  0  0  0  0  0  0
   44.3623    0.2194   -5.7329 C   0  0  0  0  0  0  0  0  0  0  0  0
   43.7804    0.6628   -2.7150 C   0  0  0  0  0  0  0  0  0  0  0  0
   42.4971    0.8879   -3.3546 C   0  0  0  0  0  0  0  0  0  0  0  0
   41.5567    0.6717   -2.4114 C   0  0  0  0  0  0  0  0  0  0  0  0
   42.2652    0.3330   -1.1941 C   0  0  0  0  0  0  0  0  0  0  0  0
   43.5982    0.3442   -1.4036 N   0  0  0  0  0  0  0  0  0  0  0  0
   40.5279   -0.6514    2.5975 H   0  0  0  0  0  0  0  0  0  0  0  0
   42.4142   -1.0417    4.4441 H   0  0  0  0  0  0  0  0  0  0  0  0
   44.2971   -0.1081    0.7825 H   0  0  0  0  0  0  0  0  0  0  0  0
   46.2041   -2.7740    4.6672 H   0  0  0  0  0  0  0  0  0  0  0  0
   46.2366   -3.2417    7.0877 H   0  0  0  0  0  0  0  0  0  0  0  0
   45.8510   -2.3647    9.2798 H   0  0  0  0  0  0  0  0  0  0  0  0
   44.9735   -0.9511    9.5622 H   0  0  0  0  0  0  0  0  0  0  0  0
   44.0191    0.3613    7.8071 H   0  0  0  0  0  0  0  0  0  0  0  0
   43.9965    0.8266    5.3868 H   0  0  0  0  0  0  0  0  0  0  0  0
   47.7350   -0.6415    4.4931 H   0  0  0  0  0  0  0  0  0  0  0  0
   49.6046   -0.2832    2.5970 H   0  0  0  0  0  0  0  0  0  0  0  0
   49.5599    0.3642   -2.6515 H   0  0  0  0  0  0  0  0  0  0  0  0
   47.6734    0.7759   -4.4967 H   0  0  0  0  0  0  0  0  0  0  0  0
   45.7948    0.2612   -0.7513 H   0  0  0  0  0  0  0  0  0  0  0  0
   46.0969    2.9092   -4.6244 H   0  0  0  0  0  0  0  0  0  0  0  0
   46.0781    3.4245   -7.0350 H   0  0  0  0  0  0  0  0  0  0  0  0
   44.2529    1.4854   -9.4571 H   0  0  0  0  0  0  0  0  0  0  0  0
   45.1269    2.8991   -9.1649 H   0  0  0  0  0  0  0  0  0  0  0  0
   43.8672   -0.1768   -7.7813 H   0  0  0  0  0  0  0  0  0  0  0  0
   43.8938   -0.6887   -5.3698 H   0  0  0  0  0  0  0  0  0  0  0  0
   42.3549    1.1833   -4.3815 H   0  0  0  0  0  0  0  0  0  0  0  0
   40.4849    0.7330   -2.5077 H   0  0  0  0  0  0  0  0  0  0  0  0
  1  2  4  0  0  0  0
  2  3  4  0  0  0  0
  3  4  2  0  0  0  0
  4  5  4  0  0  0  0
  2  6  4  0  0  0  0
  5  6  4  0  0  0  0
  5  7  4  0  0  0  0
  7  8  1  0  0  0  0
  8  9  4  0  0  0  0
  9 10  4  0  0  0  0
 10 11  4  0  0  0  0
 11 12  1  0  0  0  0
 11 13  4  0  0  0  0
  8 14  4  0  0  0  0
 13 14  4  0  0  0  0
  7 15  4  0  0  0  0
 15 16  1  0  0  0  0
 16 17  2  0  0  0  0
 15 18  4  0  0  0  0
 17 19  1  0  0  0  0
 18 19  4  0  0  0  0
 19 20  4  0  0  0  0
 20 21  4  0  0  0  0
 21 22  4  0  0  0  0
 22 23  2  0  0  0  0
 23 24  4  0  0  0  0
 21 25  4  0  0  0  0
 24 25  4  0  0  0  0
 24 26  4  0  0  0  0
 26 27  1  0  0  0  0
 27 28  4  0  0  0  0
 28 29  4  0  0  0  0
 29 30  4  0  0  0  0
 30 31  1  0  0  0  0
 30 32  4  0  0  0  0
 27 33  4  0  0  0  0
 32 33  4  0  0  0  0
 26 34  4  0  0  0  0
 34 35  1  0  0  0  0
 35 36  2  0  0  0  0
  1 37  4  0  0  0  0
 36 37  1  0  0  0  0
 34 38  4  0  0  0  0
 37 38  4  0  0  0  0
  1 39  1  0  0  0  0
  3 40  1  0  0  0  0
  4 41  1  0  0  0  0
  6 42  1  0  0  0  0
  9 43  1  0  0  0  0
 10 44  1  0  0  0  0
 12 45  1  0  0  0  0
 12 46  1  0  0  0  0
 13 47  1  0  0  0  0
 14 48  1  0  0  0  0
 16 49  1  0  0  0  0
 17 50  1  0  0  0  0
 22 51  1  0  0  0  0
 23 52  1  0  0  0  0
 25 53  1  0  0  0  0
 28 54  1  0  0  0  0
 29 55  1  0  0  0  0
 31 56  1  0  0  0  0
 31 57  1  0  0  0  0
 32 58  1  0  0  0  0
 33 59  1  0  0  0  0
 35 60  1  0  0  0  0
 36 61  1  0  0  0  0
 62 63  4  0  0  0  0
 63 64  4  0  0  0  0
 64 65  2  0  0  0  0
 65 66  4  0  0  0  0
 63 67  4  0  0  0  0
 66 67  4  0  0  0  0
 66 68  4  0  0  0  0
 68 69  1  0  0  0  0
 69 70  4  0  0  0  0
 70 71  4  0  0  0  0
 71 72  4  0  0  0  0
 72 73  1  0  0  0  0
 72 74  4  0  0  0  0
 69 75  4  0  0  0  0
 74 75  4  0  0  0  0
 68 76  4  0  0  0  0
 76 77  1  0  0  0  0
 77 78  2  0  0  0  0
 76 79  4  0  0  0  0
 78 80  1  0  0  0  0
 79 80  4  0  0  0  0
 80 81  4  0  0  0  0
 81 82  4  0  0  0  0
 82 83  4  0  0  0  0
 83 84  2  0  0  0  0
 84 85  4  0  0  0  0
 82 86  4  0  0  0  0
 85 86  4  0  0  0  0
 85 87  4  0  0  0  0
 87 88  1  0  0  0  0
 88 89  4  0  0  0  0
 89 90  4  0  0  0  0
 90 91  4  0  0  0  0
 91 92  1  0  0  0  0
 91 93  4  0  0  0  0
 88 94  4  0  0  0  0
 93 94  4  0  0  0  0
 87 95  4  0  0  0  0
 95 96  1  0  0  0  0
 96 97  2  0  0  0  0
 62 98  4  0  0  0  0
 97 98  1  0  0  0  0
 95 99  4  0  0  0  0
 98 99  4  0  0  0  0
 62100  1  0  0  0  0
 64101  1  0  0  0  0
 65102  1  0  0  0  0
 67103  1  0  0  0  0
 70104  1  0  0  0  0
 71105  1  0  0  0  0
 73106  1  0  0  0  0
 73107  1  0  0  0  0
 74108  1  0  0  0  0
 75109  1  0  0  0  0
 77110  1  0  0  0  0
 78111  1  0  0  0  0
 83112  1  0  0  0  0
 84113  1  0  0  0  0
 86114  1  0  0  0  0
 89115  1  0  0  0  0
 90116  1  0  0  0  0
 92117  1  0  0  0  0
 92118  1  0  0  0  0
 93119  1  0  0  0  0
 94120  1  0  0  0  0
 96121  1  0  0  0  0
 97122  1  0  0  0  0
 20123  4  0  0  0  0
123124  3  0  0  0  0
 81126  4  0  0  0  0
125126  3  0  0  0  0
124127  4  0  0  0  0
127128  4  0  0  0  0
128129  4  0  0  0  0
129130  2  0  0  0  0
130131  4  0  0  0  0
128132  4  0  0  0  0
131132  4  0  0  0  0
131133  4  0  0  0  0
133134  1  0  0  0  0
134135  4  0  0  0  0
135136  4  0  0  0  0
136137  4  0  0  0  0
137138  1  0  0  0  0
137139  4  0  0  0  0
134140  4  0  0  0  0
139140  4  0  0  0  0
133141  4  0  0  0  0
141142  1  0  0  0  0
142143  2  0  0  0  0
141144  4  0  0  0  0
143145  1  0  0  0  0
144145  4  0  0  0  0
125146  4  0  0  0  0
145146  4  0  0  0  0
146147  4  0  0  0  0
147148  4  0  0  0  0
148149  2  0  0  0  0
149150  4  0  0  0  0
147151  4  0  0  0  0
150151  4  0  0  0  0
150152  4  0  0  0  0
152153  1  0  0  0  0
153154  4  0  0  0  0
154155  4  0  0  0  0
155156  4  0  0  0  0
156157  1  0  0  0  0
156158  4  0  0  0  0
153159  4  0  0  0  0
158159  4  0  0  0  0
152160  4  0  0  0  0
160161  1  0  0  0  0
161162  2  0  0  0  0
127163  4  0  0  0  0
162163  1  0  0  0  0
160164  4  0  0  0  0
163164  4  0  0  0  0
129165  1  0  0  0  0
130166  1  0  0  0  0
132167  1  0  0  0  0
135168  1  0  0  0  0
136169  1  0  0  0  0
138170  1  0  0  0  0
138171  1  0  0  0  0
139172  1  0  0  0  0
140173  1  0  0  0  0
142174  1  0  0  0  0
143175  1  0  0  0  0
148176  1  0  0  0  0
149177  1  0  0  0  0
151178  1  0  0  0  0
154179  1  0  0  0  0
155180  1  0  0  0  0
157181  1  0  0  0  0
157182  1  0  0  0  0
158183  1  0  0  0  0
159184  1  0  0  0  0
161185  1  0  0  0  0
162186  1  0  0  0  0
M  END
