 xtb: 6.5.1 (b24c23e)
          07302207103D

165194  0     0  0            999 V2000
   27.2702   -0.0317   -0.0235 Zn  0  0  0  0  0  0  0  0  0  0  0  0
   23.8601   -0.0539   -0.0392 C   0  0  0  0  0  0  0  0  0  0  0  0
   24.4862   -1.2859    0.1068 C   0  0  0  0  0  0  0  0  0  0  0  0
   23.8082   -2.5402    0.2808 C   0  0  0  0  0  0  0  0  0  0  0  0
   24.7640   -3.4940    0.4074 C   0  0  0  0  0  0  0  0  0  0  0  0
   26.0392   -2.8345    0.3037 C   0  0  0  0  0  0  0  0  0  0  0  0
   25.8350   -1.4972    0.1277 N   0  0  0  0  0  0  0  0  0  0  0  0
   27.2883   -3.4587    0.4043 C   0  0  0  0  0  0  0  0  0  0  0  0
   27.2957   -4.9306    0.5843 C   0  0  0  0  0  0  0  0  0  0  0  0
   27.8406   -5.5193    1.7252 C   0  0  0  0  0  0  0  0  0  0  0  0
   27.8224   -6.8995    1.8490 C   0  0  0  0  0  0  0  0  0  0  0  0
   27.3093   -7.7035    0.9230 N   0  0  0  0  0  0  0  0  0  0  0  0
   26.7893   -7.1511   -0.1684 C   0  0  0  0  0  0  0  0  0  0  0  0
   26.7574   -5.7817   -0.3804 C   0  0  0  0  0  0  0  0  0  0  0  0
   28.5302   -2.8159    0.3492 C   0  0  0  0  0  0  0  0  0  0  0  0
   29.8077   -3.4717    0.4039 C   0  0  0  0  0  0  0  0  0  0  0  0
   30.7570   -2.5077    0.2943 C   0  0  0  0  0  0  0  0  0  0  0  0
   28.7281   -1.4700    0.1965 N   0  0  0  0  0  0  0  0  0  0  0  0
   30.0714   -1.2553    0.1637 C   0  0  0  0  0  0  0  0  0  0  0  0
   30.7049   -0.0098   -0.0095 C   0  0  0  0  0  0  0  0  0  0  0  0
   30.0570    1.2277   -0.1854 C   0  0  0  0  0  0  0  0  0  0  0  0
   30.7273    2.4811   -0.3733 C   0  0  0  0  0  0  0  0  0  0  0  0
   29.7665    3.4326   -0.4912 C   0  0  0  0  0  0  0  0  0  0  0  0
   28.4974    2.7703   -0.3670 C   0  0  0  0  0  0  0  0  0  0  0  0
   28.7113    1.4297   -0.1918 N   0  0  0  0  0  0  0  0  0  0  0  0
   27.2479    3.3965   -0.4404 C   0  0  0  0  0  0  0  0  0  0  0  0
   27.2385    4.8704   -0.6039 C   0  0  0  0  0  0  0  0  0  0  0  0
   26.6730    5.4739   -1.7266 C   0  0  0  0  0  0  0  0  0  0  0  0
   26.6881    6.8558   -1.8318 C   0  0  0  0  0  0  0  0  0  0  0  0
   27.2164    7.6477   -0.9040 N   0  0  0  0  0  0  0  0  0  0  0  0
   27.7561    7.0809    0.1705 C   0  0  0  0  0  0  0  0  0  0  0  0
   27.7930    5.7090    0.3629 C   0  0  0  0  0  0  0  0  0  0  0  0
   26.0060    2.7542   -0.3685 C   0  0  0  0  0  0  0  0  0  0  0  0
   24.7233    3.4062   -0.4046 C   0  0  0  0  0  0  0  0  0  0  0  0
   23.7790    2.4388   -0.2962 C   0  0  0  0  0  0  0  0  0  0  0  0
   24.4718    1.1857   -0.1821 C   0  0  0  0  0  0  0  0  0  0  0  0
   25.8179    1.4108   -0.2241 N   0  0  0  0  0  0  0  0  0  0  0  0
   22.7746   -0.0591   -0.0304 H   0  0  0  0  0  0  0  0  0  0  0  0
   22.7367   -2.6623    0.3081 H   0  0  0  0  0  0  0  0  0  0  0  0
   24.6232   -4.5506    0.5700 H   0  0  0  0  0  0  0  0  0  0  0  0
   28.2586   -4.9030    2.5123 H   0  0  0  0  0  0  0  0  0  0  0  0
   28.2374   -7.3799    2.7303 H   0  0  0  0  0  0  0  0  0  0  0  0
   26.3797   -7.8333   -0.9078 H   0  0  0  0  0  0  0  0  0  0  0  0
   26.3342   -5.3774   -1.2922 H   0  0  0  0  0  0  0  0  0  0  0  0
   29.9578   -4.5351    0.4980 H   0  0  0  0  0  0  0  0  0  0  0  0
   31.8284   -2.6296    0.2893 H   0  0  0  0  0  0  0  0  0  0  0  0
   31.7972    2.6105   -0.4112 H   0  0  0  0  0  0  0  0  0  0  0  0
   29.9034    4.4887   -0.6591 H   0  0  0  0  0  0  0  0  0  0  0  0
   26.2415    4.8683   -2.5148 H   0  0  0  0  0  0  0  0  0  0  0  0
   26.2571    7.3478   -2.6991 H   0  0  0  0  0  0  0  0  0  0  0  0
   28.1777    7.7536    0.9118 H   0  0  0  0  0  0  0  0  0  0  0  0
   28.2326    5.2922    1.2613 H   0  0  0  0  0  0  0  0  0  0  0  0
   24.5699    4.4701   -0.4900 H   0  0  0  0  0  0  0  0  0  0  0  0
   22.7062    2.5521   -0.2856 H   0  0  0  0  0  0  0  0  0  0  0  0
   49.1004    0.0469   -0.0222 Zn  0  0  0  0  0  0  0  0  0  0  0  0
   52.5114    0.0547   -0.0595 C   0  0  0  0  0  0  0  0  0  0  0  0
   51.8873    1.2720   -0.3039 C   0  0  0  0  0  0  0  0  0  0  0  0
   52.5671    2.5166   -0.5316 C   0  0  0  0  0  0  0  0  0  0  0  0
   51.6127    3.4639   -0.7082 C   0  0  0  0  0  0  0  0  0  0  0  0
   50.3366    2.8067   -0.6010 C   0  0  0  0  0  0  0  0  0  0  0  0
   50.5388    1.4814   -0.3490 N   0  0  0  0  0  0  0  0  0  0  0  0
   49.0882    3.4316   -0.7040 C   0  0  0  0  0  0  0  0  0  0  0  0
   49.0827    4.8890   -0.9788 C   0  0  0  0  0  0  0  0  0  0  0  0
   48.5389    5.7945   -0.0680 C   0  0  0  0  0  0  0  0  0  0  0  0
   48.5608    7.1481   -0.3641 C   0  0  0  0  0  0  0  0  0  0  0  0
   49.0768    7.6357   -1.4881 N   0  0  0  0  0  0  0  0  0  0  0  0
   49.5953    6.7797   -2.3627 C   0  0  0  0  0  0  0  0  0  0  0  0
   49.6232    5.4096   -2.1541 C   0  0  0  0  0  0  0  0  0  0  0  0
   47.8453    2.8038   -0.5642 C   0  0  0  0  0  0  0  0  0  0  0  0
   46.5697    3.4474   -0.7152 C   0  0  0  0  0  0  0  0  0  0  0  0
   45.6183    2.4999   -0.5170 C   0  0  0  0  0  0  0  0  0  0  0  0
   47.6439    1.4773   -0.2916 N   0  0  0  0  0  0  0  0  0  0  0  0
   46.3000    1.2667   -0.2537 C   0  0  0  0  0  0  0  0  0  0  0  0
   45.6629    0.0379    0.0076 C   0  0  0  0  0  0  0  0  0  0  0  0
   46.3105   -1.1865    0.2637 C   0  0  0  0  0  0  0  0  0  0  0  0
   45.6397   -2.4344    0.4823 C   0  0  0  0  0  0  0  0  0  0  0  0
   46.5994   -3.3762    0.6668 C   0  0  0  0  0  0  0  0  0  0  0  0
   47.8692   -2.7112    0.5677 C   0  0  0  0  0  0  0  0  0  0  0  0
   47.6562   -1.3827    0.3147 N   0  0  0  0  0  0  0  0  0  0  0  0
   49.1177   -3.3343    0.6753 C   0  0  0  0  0  0  0  0  0  0  0  0
   49.1256   -4.7878    0.9685 C   0  0  0  0  0  0  0  0  0  0  0  0
   49.6771   -5.7042    0.0733 C   0  0  0  0  0  0  0  0  0  0  0  0
   49.6601   -7.0534    0.3895 C   0  0  0  0  0  0  0  0  0  0  0  0
   49.1428   -7.5266    1.5189 N   0  0  0  0  0  0  0  0  0  0  0  0
   48.6169   -6.6600    2.3789 C   0  0  0  0  0  0  0  0  0  0  0  0
   48.5829   -5.2936    2.1494 C   0  0  0  0  0  0  0  0  0  0  0  0
   50.3605   -2.7071    0.5264 C   0  0  0  0  0  0  0  0  0  0  0  0
   51.6422   -3.3427    0.6836 C   0  0  0  0  0  0  0  0  0  0  0  0
   52.5883   -2.3935    0.4752 C   0  0  0  0  0  0  0  0  0  0  0  0
   51.8975   -1.1653    0.1967 C   0  0  0  0  0  0  0  0  0  0  0  0
   50.5509   -1.3872    0.2392 N   0  0  0  0  0  0  0  0  0  0  0  0
   53.5970    0.0595   -0.0580 H   0  0  0  0  0  0  0  0  0  0  0  0
   53.6388    2.6393   -0.5446 H   0  0  0  0  0  0  0  0  0  0  0  0
   51.7553    4.5180   -0.8845 H   0  0  0  0  0  0  0  0  0  0  0  0
   48.1189    5.4438    0.8673 H   0  0  0  0  0  0  0  0  0  0  0  0
   48.1468    7.8719    0.3318 H   0  0  0  0  0  0  0  0  0  0  0  0
   50.0073    7.2074   -3.2722 H   0  0  0  0  0  0  0  0  0  0  0  0
   50.0455    4.7492   -2.9020 H   0  0  0  0  0  0  0  0  0  0  0  0
   46.4220    4.4883   -0.9537 H   0  0  0  0  0  0  0  0  0  0  0  0
   44.5474    2.6208   -0.5453 H   0  0  0  0  0  0  0  0  0  0  0  0
   44.5701   -2.5703    0.4808 H   0  0  0  0  0  0  0  0  0  0  0  0
   46.4611   -4.4314    0.8393 H   0  0  0  0  0  0  0  0  0  0  0  0
   50.0989   -5.3658   -0.8658 H   0  0  0  0  0  0  0  0  0  0  0  0
   50.0798   -7.7855   -0.2942 H   0  0  0  0  0  0  0  0  0  0  0  0
   48.2048   -7.0763    3.2936 H   0  0  0  0  0  0  0  0  0  0  0  0
   48.1547   -4.6238    2.8856 H   0  0  0  0  0  0  0  0  0  0  0  0
   51.7940   -4.3803    0.9348 H   0  0  0  0  0  0  0  0  0  0  0  0
   53.6610   -2.5018    0.5110 H   0  0  0  0  0  0  0  0  0  0  0  0
   32.1157   -0.0034   -0.0146 C   0  0  0  0  0  0  0  0  0  0  0  0
   33.3320   -0.0008   -0.0155 C   0  0  0  0  0  0  0  0  0  0  0  0
   43.0354    0.0223    0.0006 C   0  0  0  0  0  0  0  0  0  0  0  0
   44.2522    0.0305    0.0033 C   0  0  0  0  0  0  0  0  0  0  0  0
   38.1824    0.0042   -0.0161 Zn  0  0  0  0  0  0  0  0  0  0  0  0
   34.7425   -0.0003   -0.0173 C   0  0  0  0  0  0  0  0  0  0  0  0
   35.3853   -0.9287    0.8236 C   0  0  0  0  0  0  0  0  0  0  0  0
   34.7093   -1.8352    1.7043 C   0  0  0  0  0  0  0  0  0  0  0  0
   35.6659   -2.5453    2.3551 C   0  0  0  0  0  0  0  0  0  0  0  0
   36.9372   -2.0840    1.8711 C   0  0  0  0  0  0  0  0  0  0  0  0
   36.7301   -1.0959    0.9469 N   0  0  0  0  0  0  0  0  0  0  0  0
   38.1843   -2.5483    2.3036 C   0  0  0  0  0  0  0  0  0  0  0  0
   38.1845   -3.6361    3.3121 C   0  0  0  0  0  0  0  0  0  0  0  0
   37.6330   -4.8859    3.0321 C   0  0  0  0  0  0  0  0  0  0  0  0
   37.6562   -5.8696    4.0080 C   0  0  0  0  0  0  0  0  0  0  0  0
   38.1795   -5.6806    5.2152 N   0  0  0  0  0  0  0  0  0  0  0  0
   38.7057   -4.4916    5.4913 C   0  0  0  0  0  0  0  0  0  0  0  0
   38.7338   -3.4478    4.5800 C   0  0  0  0  0  0  0  0  0  0  0  0
   39.4305   -2.0767    1.8764 C   0  0  0  0  0  0  0  0  0  0  0  0
   40.7022   -2.5929    2.2997 C   0  0  0  0  0  0  0  0  0  0  0  0
   41.6582   -1.8775    1.6540 C   0  0  0  0  0  0  0  0  0  0  0  0
   39.6373   -1.0698    0.9723 N   0  0  0  0  0  0  0  0  0  0  0  0
   40.9821   -0.9262    0.8220 C   0  0  0  0  0  0  0  0  0  0  0  0
   41.6251    0.0153   -0.0052 C   0  0  0  0  0  0  0  0  0  0  0  0
   40.9806    0.9498   -0.8391 C   0  0  0  0  0  0  0  0  0  0  0  0
   41.6548    1.9011   -1.6723 C   0  0  0  0  0  0  0  0  0  0  0  0
   40.6978    2.6054   -2.3287 C   0  0  0  0  0  0  0  0  0  0  0  0
   39.4273    2.0830   -1.9097 C   0  0  0  0  0  0  0  0  0  0  0  0
   39.6356    1.0832   -0.9981 N   0  0  0  0  0  0  0  0  0  0  0  0
   38.1808    2.5440   -2.3470 C   0  0  0  0  0  0  0  0  0  0  0  0
   38.1816    3.6189   -3.3693 C   0  0  0  0  0  0  0  0  0  0  0  0
   38.7382    3.4140   -4.6316 C   0  0  0  0  0  0  0  0  0  0  0  0
   38.7115    4.4441   -5.5582 C   0  0  0  0  0  0  0  0  0  0  0  0
   38.1798    5.6352   -5.3021 N   0  0  0  0  0  0  0  0  0  0  0  0
   37.6497    5.8401   -4.1006 C   0  0  0  0  0  0  0  0  0  0  0  0
   37.6248    4.8707   -3.1102 C   0  0  0  0  0  0  0  0  0  0  0  0
   36.9342    2.0788   -1.9144 C   0  0  0  0  0  0  0  0  0  0  0  0
   35.6624    2.5335   -2.4029 C   0  0  0  0  0  0  0  0  0  0  0  0
   34.7068    1.8267   -1.7470 C   0  0  0  0  0  0  0  0  0  0  0  0
   35.3840    0.9271   -0.8603 C   0  0  0  0  0  0  0  0  0  0  0  0
   36.7285    1.0967   -0.9832 N   0  0  0  0  0  0  0  0  0  0  0  0
   33.6391   -1.9064    1.8155 H   0  0  0  0  0  0  0  0  0  0  0  0
   35.5242   -3.3053    3.1065 H   0  0  0  0  0  0  0  0  0  0  0  0
   37.2056   -5.0895    2.0574 H   0  0  0  0  0  0  0  0  0  0  0  0
   37.2361   -6.8518    3.8114 H   0  0  0  0  0  0  0  0  0  0  0  0
   39.1233   -4.3667    6.4862 H   0  0  0  0  0  0  0  0  0  0  0  0
   39.1626   -2.4912    4.8543 H   0  0  0  0  0  0  0  0  0  0  0  0
   40.8445   -3.4053    2.9940 H   0  0  0  0  0  0  0  0  0  0  0  0
   42.7286   -1.9818    1.7300 H   0  0  0  0  0  0  0  0  0  0  0  0
   42.7248    2.0122   -1.7433 H   0  0  0  0  0  0  0  0  0  0  0  0
   40.8387    3.4145   -3.0270 H   0  0  0  0  0  0  0  0  0  0  0  0
   39.1719    2.4550   -4.8891 H   0  0  0  0  0  0  0  0  0  0  0  0
   39.1348    4.3062   -6.5489 H   0  0  0  0  0  0  0  0  0  0  0  0
   37.2254    6.8236   -3.9205 H   0  0  0  0  0  0  0  0  0  0  0  0
   37.1920    5.0875   -2.1407 H   0  0  0  0  0  0  0  0  0  0  0  0
   35.5197    3.2873   -3.1603 H   0  0  0  0  0  0  0  0  0  0  0  0
   33.6365    1.8948   -1.8594 H   0  0  0  0  0  0  0  0  0  0  0  0
  2  3  4  0  0  0  0
  3  4  1  0  0  0  0
  4  5  2  0  0  0  0
  5  6  4  0  0  0  0
  1  7  1  0  0  0  0
  3  7  4  0  0  0  0
  6  7  4  0  0  0  0
  6  8  4  0  0  0  0
  8  9  1  0  0  0  0
  9 10  4  0  0  0  0
 10 11  4  0  0  0  0
 11 12  4  0  0  0  0
 12 13  4  0  0  0  0
  9 14  4  0  0  0  0
 13 14  4  0  0  0  0
  8 15  4  0  0  0  0
 15 16  4  0  0  0  0
 16 17  2  0  0  0  0
  1 18  1  0  0  0  0
 15 18  4  0  0  0  0
 17 19  4  0  0  0  0
 18 19  4  0  0  0  0
 19 20  4  0  0  0  0
 20 21  4  0  0  0  0
 21 22  4  0  0  0  0
 22 23  2  0  0  0  0
 23 24  4  0  0  0  0
  1 25  1  0  0  0  0
 21 25  4  0  0  0  0
 24 25  4  0  0  0  0
 24 26  4  0  0  0  0
 26 27  1  0  0  0  0
 27 28  4  0  0  0  0
 28 29  4  0  0  0  0
 29 30  4  0  0  0  0
 30 31  4  0  0  0  0
 27 32  4  0  0  0  0
 31 32  4  0  0  0  0
 26 33  4  0  0  0  0
 33 34  4  0  0  0  0
 34 35  2  0  0  0  0
  2 36  4  0  0  0  0
 35 36  1  0  0  0  0
  1 37  1  0  0  0  0
 33 37  4  0  0  0  0
 36 37  4  0  0  0  0
  2 38  1  0  0  0  0
  4 39  1  0  0  0  0
  5 40  1  0  0  0  0
 10 41  1  0  0  0  0
 11 42  1  0  0  0  0
 13 43  1  0  0  0  0
 14 44  1  0  0  0  0
 16 45  1  0  0  0  0
 17 46  1  0  0  0  0
 22 47  1  0  0  0  0
 23 48  1  0  0  0  0
 28 49  1  0  0  0  0
 29 50  1  0  0  0  0
 31 51  1  0  0  0  0
 32 52  1  0  0  0  0
 34 53  1  0  0  0  0
 35 54  1  0  0  0  0
 56 57  4  0  0  0  0
 57 58  1  0  0  0  0
 58 59  2  0  0  0  0
 59 60  4  0  0  0  0
 55 61  1  0  0  0  0
 57 61  4  0  0  0  0
 60 61  4  0  0  0  0
 60 62  4  0  0  0  0
 62 63  1  0  0  0  0
 63 64  4  0  0  0  0
 64 65  4  0  0  0  0
 65 66  4  0  0  0  0
 66 67  4  0  0  0  0
 63 68  4  0  0  0  0
 67 68  4  0  0  0  0
 62 69  4  0  0  0  0
 69 70  4  0  0  0  0
 70 71  2  0  0  0  0
 55 72  1  0  0  0  0
 69 72  4  0  0  0  0
 71 73  4  0  0  0  0
 72 73  4  0  0  0  0
 73 74  4  0  0  0  0
 74 75  4  0  0  0  0
 75 76  4  0  0  0  0
 76 77  2  0  0  0  0
 77 78  4  0  0  0  0
 55 79  1  0  0  0  0
 75 79  4  0  0  0  0
 78 79  4  0  0  0  0
 78 80  4  0  0  0  0
 80 81  1  0  0  0  0
 81 82  4  0  0  0  0
 82 83  4  0  0  0  0
 83 84  4  0  0  0  0
 84 85  4  0  0  0  0
 81 86  4  0  0  0  0
 85 86  4  0  0  0  0
 80 87  4  0  0  0  0
 87 88  4  0  0  0  0
 88 89  2  0  0  0  0
 56 90  4  0  0  0  0
 89 90  1  0  0  0  0
 55 91  1  0  0  0  0
 87 91  4  0  0  0  0
 90 91  4  0  0  0  0
 56 92  1  0  0  0  0
 58 93  1  0  0  0  0
 59 94  1  0  0  0  0
 64 95  1  0  0  0  0
 65 96  1  0  0  0  0
 67 97  1  0  0  0  0
 68 98  1  0  0  0  0
 70 99  1  0  0  0  0
 71100  1  0  0  0  0
 76101  1  0  0  0  0
 77102  1  0  0  0  0
 82103  1  0  0  0  0
 83104  1  0  0  0  0
 85105  1  0  0  0  0
 86106  1  0  0  0  0
 88107  1  0  0  0  0
 89108  1  0  0  0  0
 20109  4  0  0  0  0
109110  3  0  0  0  0
 74112  4  0  0  0  0
111112  3  0  0  0  0
110114  4  0  0  0  0
114115  4  0  0  0  0
115116  4  0  0  0  0
116117  2  0  0  0  0
117118  4  0  0  0  0
113119  1  0  0  0  0
115119  4  0  0  0  0
118119  4  0  0  0  0
118120  4  0  0  0  0
120121  1  0  0  0  0
121122  4  0  0  0  0
122123  4  0  0  0  0
123124  4  0  0  0  0
124125  4  0  0  0  0
121126  4  0  0  0  0
125126  4  0  0  0  0
120127  4  0  0  0  0
127128  4  0  0  0  0
128129  2  0  0  0  0
113130  1  0  0  0  0
127130  4  0  0  0  0
129131  4  0  0  0  0
130131  4  0  0  0  0
111132  4  0  0  0  0
131132  4  0  0  0  0
132133  4  0  0  0  0
133134  4  0  0  0  0
134135  2  0  0  0  0
135136  4  0  0  0  0
113137  1  0  0  0  0
133137  4  0  0  0  0
136137  4  0  0  0  0
136138  4  0  0  0  0
138139  1  0  0  0  0
139140  4  0  0  0  0
140141  4  0  0  0  0
141142  4  0  0  0  0
142143  4  0  0  0  0
139144  4  0  0  0  0
143144  4  0  0  0  0
138145  4  0  0  0  0
145146  4  0  0  0  0
146147  2  0  0  0  0
114148  4  0  0  0  0
147148  4  0  0  0  0
113149  1  0  0  0  0
145149  4  0  0  0  0
148149  4  0  0  0  0
116150  1  0  0  0  0
117151  1  0  0  0  0
122152  1  0  0  0  0
123153  1  0  0  0  0
125154  1  0  0  0  0
126155  1  0  0  0  0
128156  1  0  0  0  0
129157  1  0  0  0  0
134158  1  0  0  0  0
135159  1  0  0  0  0
140160  1  0  0  0  0
141161  1  0  0  0  0
143162  1  0  0  0  0
144163  1  0  0  0  0
146164  1  0  0  0  0
147165  1  0  0  0  0
M  END
