165

Zn 26.454932 0.012328 -0.010959
C 23.088898 -0.101823 -0.042896
C 23.751836 -1.260249 0.014657
C 23.100201 -2.563179 0.073468
C 24.040059 -3.483551 0.180394
C 25.346221 -2.810777 0.194347
N 25.170061 -1.397863 0.084412
C 26.535116 -3.428708 0.347888
C 26.570891 -4.899901 0.498233
C 26.776164 -5.476361 1.758771
C 26.804834 -6.867663 1.879770
N 26.632172 -7.651491 0.782045
C 26.430232 -7.116540 -0.451711
C 26.396893 -5.729870 -0.617479
C 27.829358 -2.697958 0.387778
C 29.119374 -3.335651 0.677243
C 30.054002 -2.411410 0.593464
N 27.971214 -1.433797 0.128630
C 29.370377 -1.173679 0.240488
C 29.966763 0.003490 -0.011778
C 29.208899 1.219355 -0.385078
C 29.752194 2.292808 -0.944941
C 28.709522 3.292381 -1.063036
C 27.597866 2.765610 -0.564007
N 27.822617 1.428554 -0.113542
C 26.312760 3.498864 -0.427098
C 26.335608 4.981504 -0.474293
C 25.673895 5.675437 -1.497839
C 25.718105 7.071344 -1.520628
N 26.404739 7.748530 -0.561876
C 27.063942 7.100646 0.434658
C 27.045041 5.705312 0.495114
C 25.145869 2.850085 -0.249778
C 23.833662 3.466380 -0.059914
C 22.971421 2.472850 0.033893
C 23.723813 1.224903 -0.081484
N 24.992176 1.432071 -0.246969
H 22.005748 -0.129805 -0.043092
H 22.035815 -2.757716 0.048320
H 23.851523 -4.546533 0.257989
H 26.912566 -4.854950 2.635215
H 26.963648 -7.324808 2.847230
H 26.295059 -7.768102 -1.304638
H 26.235457 -5.306880 -1.601210
H 29.297469 -4.376373 0.911980
H 31.111760 -2.574535 0.747501
H 30.785373 2.417913 -1.238598
H 28.827506 4.291494 -1.460812
H 25.133251 5.140764 -2.268110
H 25.207446 7.616809 -2.302951
H 27.602199 7.668898 1.181798
H 27.570534 5.194212 1.292350
H 23.589138 4.518720 0.000913
H 21.904302 2.577360 0.180138
Zn 49.917317 -0.004729 -0.008425
C 53.283352 0.095207 -0.072170
C 52.620414 1.220326 -0.353898
C 53.272049 2.484072 -0.676435
C 52.332191 3.395774 -0.841712
C 51.026029 2.756118 -0.632763
N 51.202188 1.372275 -0.327166
C 49.837134 3.391997 -0.665509
C 49.801358 4.843350 -0.949386
C 49.596085 5.761392 0.089104
C 49.567416 7.127773 -0.199625
N 49.740078 7.558595 -1.477818
C 49.942018 6.688056 -2.502751
C 49.975357 5.313091 -2.258204
C 48.542892 2.704410 -0.414887
C 47.252876 3.398714 -0.323327
C 46.318247 2.490039 -0.134777
N 48.401035 1.419513 -0.295305
C 47.001873 1.203152 -0.112654
C 46.405486 0.003490 -0.011778
C 47.163350 -1.268386 -0.015458
C 46.620056 -2.458242 -0.239046
C 47.662728 -3.448971 -0.061429
C 48.774383 -2.799869 0.262893
N 48.549633 -1.389603 0.305170
C 50.059490 -3.461645 0.607070
C 50.036642 -4.893962 0.992970
C 50.698355 -5.855500 0.215388
C 50.654145 -7.197734 0.599423
N 49.967510 -7.566925 1.713642
C 49.308308 -6.657300 2.478767
C 49.327209 -5.304662 2.130939
C 51.226381 -2.789337 0.588108
C 52.538587 -3.323811 0.948950
C 53.400828 -2.345924 0.749850
C 52.648436 -1.185429 0.276635
N 51.380073 -1.431761 0.178529
H 54.366502 0.121923 -0.080492
H 54.336435 2.662894 -0.757056
H 52.520727 4.435399 -1.076516
H 49.459684 5.421636 1.108355
H 49.408602 7.846446 0.593137
H 50.077190 7.063497 -3.508267
H 50.136792 4.622366 -3.076464
H 47.074781 4.462727 -0.401303
H 45.260489 2.690902 -0.034819
H 45.586877 -2.663319 -0.483646
H 47.544743 -4.520573 -0.151545
H 51.238998 -5.567868 -0.677058
H 51.164804 -7.947086 0.009479
H 48.770051 -6.983785 3.358844
H 48.801715 -4.583855 2.745142
H 52.783112 -4.313009 1.313101
H 54.467948 -2.403401 0.920162
C 32.182132 0.003490 -0.011778
C 33.404050 0.003490 -0.011778
C 42.968200 0.003490 -0.011778
C 44.190117 0.003490 -0.011778
Zn 38.111964 0.027186 -0.044963
C 34.744321 -0.007375 0.024890
C 35.399642 -0.805668 0.887606
C 34.758765 -1.627281 1.916362
C 35.695078 -2.311634 2.542959
C 36.992329 -1.972032 1.949412
N 36.814552 -1.010722 0.905982
C 38.176721 -2.499747 2.326082
C 38.212785 -3.536149 3.384151
C 37.685205 -4.813858 3.147466
C 37.744763 -5.778427 4.156037
N 38.315313 -5.479087 5.353440
C 38.839455 -4.250168 5.606299
C 38.799834 -3.256003 4.625819
C 39.473357 -2.085676 1.731731
C 40.741481 -2.788847 1.964393
C 41.693514 -2.119872 1.346005
N 39.641206 -1.031657 0.995290
C 41.038928 -0.985089 0.708096
C 41.653890 -0.007375 0.024890
C 40.902829 1.092888 -0.614753
C 41.435324 2.250312 -0.985227
C 40.403216 2.993351 -1.683527
C 39.312202 2.236054 -1.695272
N 39.537659 1.000503 -1.018924
C 38.059489 2.576980 -2.411670
C 38.122456 3.566070 -3.515969
C 38.929442 3.320901 -4.636228
C 38.993905 4.270759 -5.658412
N 38.283650 5.426122 -5.562024
C 37.499842 5.693234 -4.483672
C 37.407431 4.770901 -3.438758
C 36.888179 1.993541 -2.091476
C 35.613261 2.194325 -2.772807
C 34.725535 1.485876 -2.105147
C 35.422422 0.822320 -0.997789
N 36.686502 1.112060 -0.986407
H 33.704091 -1.682957 2.150377
H 35.508476 -2.995870 3.360310
H 37.235378 -5.058261 2.193049
H 37.338937 -6.766644 3.985798
H 39.288127 -4.044711 6.568832
H 39.220001 -2.278954 4.830821
H 40.890901 -3.693535 2.538949
H 42.742372 -2.384910 1.334162
H 42.457096 2.571028 -0.831775
H 40.517598 3.965802 -2.144717
H 39.498641 2.402972 -4.717613
H 39.610245 4.089535 -6.528767
H 36.950322 6.623844 -4.435597
H 36.789792 4.993760 -2.577380
H 35.409604 2.789188 -3.653415
H 33.675804 1.414587 -2.356087
