 xtb: 6.5.1 (b24c23e)
          07302210193D

193222  0     0  0            999 V2000
   31.6420    0.1859   -0.4670 Zn  0  0  0  0  0  0  0  0  0  0  0  0
   28.2500    0.1282   -0.1295 C   0  0  0  0  0  0  0  0  0  0  0  0
   28.8626    1.3703   -0.0153 C   0  0  0  0  0  0  0  0  0  0  0  0
   28.1751    2.6123    0.2042 C   0  0  0  0  0  0  0  0  0  0  0  0
   29.1187    3.5851    0.2545 C   0  0  0  0  0  0  0  0  0  0  0  0
   30.3969    2.9470    0.0783 C   0  0  0  0  0  0  0  0  0  0  0  0
   30.2051    1.6074   -0.0932 N   0  0  0  0  0  0  0  0  0  0  0  0
   31.6368    3.5972    0.0639 C   0  0  0  0  0  0  0  0  0  0  0  0
   31.6347    5.0646    0.2896 C   0  0  0  0  0  0  0  0  0  0  0  0
   31.1599    5.5971    1.4849 C   0  0  0  0  0  0  0  0  0  0  0  0
   31.1593    6.9756    1.6953 C   0  0  0  0  0  0  0  0  0  0  0  0
   30.6422    7.4809    2.9915 C   0  0  0  0  0  0  0  0  0  0  0  0
   30.6937    8.8162    3.1059 O   0  0  0  0  0  0  0  0  0  0  0  0
   30.2129    6.7805    3.8725 O   0  0  0  0  0  0  0  0  0  0  0  0
   31.6340    7.8345    0.7040 C   0  0  0  0  0  0  0  0  0  0  0  0
   32.1060    7.3073   -0.4878 C   0  0  0  0  0  0  0  0  0  0  0  0
   32.1087    5.9350   -0.6950 C   0  0  0  0  0  0  0  0  0  0  0  0
   32.8786    2.9855   -0.1404 C   0  0  0  0  0  0  0  0  0  0  0  0
   34.1510    3.6516   -0.0903 C   0  0  0  0  0  0  0  0  0  0  0  0
   35.1034    2.7130   -0.3244 C   0  0  0  0  0  0  0  0  0  0  0  0
   33.0835    1.6553   -0.3913 N   0  0  0  0  0  0  0  0  0  0  0  0
   34.4245    1.4647   -0.5126 C   0  0  0  0  0  0  0  0  0  0  0  0
   35.0638    0.2389   -0.7871 C   0  0  0  0  0  0  0  0  0  0  0  0
   34.4222   -1.0047   -0.9552 C   0  0  0  0  0  0  0  0  0  0  0  0
   35.0930   -2.2316   -1.2708 C   0  0  0  0  0  0  0  0  0  0  0  0
   34.1425   -3.1986   -1.3348 C   0  0  0  0  0  0  0  0  0  0  0  0
   32.8813   -2.5720   -1.0486 C   0  0  0  0  0  0  0  0  0  0  0  0
   33.0876   -1.2355   -0.8344 N   0  0  0  0  0  0  0  0  0  0  0  0
   31.6439   -3.2237   -1.0144 C   0  0  0  0  0  0  0  0  0  0  0  0
   31.6465   -4.6916   -1.2414 C   0  0  0  0  0  0  0  0  0  0  0  0
   32.3112   -5.5429   -0.3560 C   0  0  0  0  0  0  0  0  0  0  0  0
   32.3159   -6.9154   -0.5629 C   0  0  0  0  0  0  0  0  0  0  0  0
   31.6615   -7.4547   -1.6576 C   0  0  0  0  0  0  0  0  0  0  0  0
   30.9950   -6.6144   -2.5509 C   0  0  0  0  0  0  0  0  0  0  0  0
   30.3102   -7.2303   -3.7143 C   0  0  0  0  0  0  0  0  0  0  0  0
   29.6962   -6.3414   -4.5097 O   0  0  0  0  0  0  0  0  0  0  0  0
   30.2920   -8.4124   -3.9452 O   0  0  0  0  0  0  0  0  0  0  0  0
   30.9864   -5.2368   -2.3403 C   0  0  0  0  0  0  0  0  0  0  0  0
   30.4048   -2.6156   -0.7812 C   0  0  0  0  0  0  0  0  0  0  0  0
   29.1396   -3.2973   -0.7037 C   0  0  0  0  0  0  0  0  0  0  0  0
   28.1931   -2.3577   -0.4566 C   0  0  0  0  0  0  0  0  0  0  0  0
   28.8684   -1.0928   -0.3709 C   0  0  0  0  0  0  0  0  0  0  0  0
   30.2061   -1.2832   -0.5669 N   0  0  0  0  0  0  0  0  0  0  0  0
   27.1703    0.1098   -0.0186 H   0  0  0  0  0  0  0  0  0  0  0  0
   27.1055    2.7155    0.2988 H   0  0  0  0  0  0  0  0  0  0  0  0
   28.9663    4.6439    0.3897 H   0  0  0  0  0  0  0  0  0  0  0  0
   30.7996    4.9442    2.2724 H   0  0  0  0  0  0  0  0  0  0  0  0
   30.3413    9.0638    3.9762 H   0  0  0  0  0  0  0  0  0  0  0  0
   31.6312    8.9052    0.8683 H   0  0  0  0  0  0  0  0  0  0  0  0
   32.4736    7.9689   -1.2640 H   0  0  0  0  0  0  0  0  0  0  0  0
   32.4680    5.5305   -1.6347 H   0  0  0  0  0  0  0  0  0  0  0  0
   34.2970    4.7003    0.1131 H   0  0  0  0  0  0  0  0  0  0  0  0
   36.1730    2.8459   -0.3617 H   0  0  0  0  0  0  0  0  0  0  0  0
   36.1551   -2.3313   -1.4292 H   0  0  0  0  0  0  0  0  0  0  0  0
   34.2798   -4.2425   -1.5668 H   0  0  0  0  0  0  0  0  0  0  0  0
   32.8153   -5.1231    0.5073 H   0  0  0  0  0  0  0  0  0  0  0  0
   32.8324   -7.5639    0.1356 H   0  0  0  0  0  0  0  0  0  0  0  0
   31.6568   -8.5242   -1.8354 H   0  0  0  0  0  0  0  0  0  0  0  0
   29.2772   -6.8224   -5.2417 H   0  0  0  0  0  0  0  0  0  0  0  0
   30.4785   -4.5855   -3.0417 H   0  0  0  0  0  0  0  0  0  0  0  0
   28.9999   -4.3607   -0.8144 H   0  0  0  0  0  0  0  0  0  0  0  0
   27.1305   -2.4979   -0.3341 H   0  0  0  0  0  0  0  0  0  0  0  0
   58.5650    0.2122   -0.3681 Zn  0  0  0  0  0  0  0  0  0  0  0  0
   61.9689    0.1303   -0.1938 C   0  0  0  0  0  0  0  0  0  0  0  0
   61.3350   -1.0706   -0.4884 C   0  0  0  0  0  0  0  0  0  0  0  0
   62.0042   -2.3153   -0.7458 C   0  0  0  0  0  0  0  0  0  0  0  0
   61.0424   -3.2413   -0.9836 C   0  0  0  0  0  0  0  0  0  0  0  0
   59.7719   -2.5752   -0.8642 C   0  0  0  0  0  0  0  0  0  0  0  0
   59.9854   -1.2593   -0.5752 N   0  0  0  0  0  0  0  0  0  0  0  0
   58.5186   -3.1748   -1.0389 C   0  0  0  0  0  0  0  0  0  0  0  0
   58.5006   -4.6330   -1.3161 C   0  0  0  0  0  0  0  0  0  0  0  0
   59.0253   -5.5333   -0.3929 C   0  0  0  0  0  0  0  0  0  0  0  0
   59.0108   -6.9033   -0.6521 C   0  0  0  0  0  0  0  0  0  0  0  0
   59.5859   -7.8101    0.3724 C   0  0  0  0  0  0  0  0  0  0  0  0
   59.5199   -9.1077    0.0386 O   0  0  0  0  0  0  0  0  0  0  0  0
   60.0737   -7.4419    1.4104 O   0  0  0  0  0  0  0  0  0  0  0  0
   58.4690   -7.3835   -1.8444 C   0  0  0  0  0  0  0  0  0  0  0  0
   57.9463   -6.4896   -2.7657 C   0  0  0  0  0  0  0  0  0  0  0  0
   57.9604   -5.1263   -2.5063 C   0  0  0  0  0  0  0  0  0  0  0  0
   57.2830   -2.5215   -0.9702 C   0  0  0  0  0  0  0  0  0  0  0  0
   55.9994   -3.1542   -1.1004 C   0  0  0  0  0  0  0  0  0  0  0  0
   55.0596   -2.1833   -0.9689 C   0  0  0  0  0  0  0  0  0  0  0  0
   57.0978   -1.1835   -0.7462 N   0  0  0  0  0  0  0  0  0  0  0  0
   55.7577   -0.9515   -0.7463 C   0  0  0  0  0  0  0  0  0  0  0  0
   55.1351    0.2986   -0.5564 C   0  0  0  0  0  0  0  0  0  0  0  0
   55.7950    1.5165   -0.2960 C   0  0  0  0  0  0  0  0  0  0  0  0
   55.1382    2.7807   -0.1381 C   0  0  0  0  0  0  0  0  0  0  0  0
   56.1049    3.7027    0.1037 C   0  0  0  0  0  0  0  0  0  0  0  0
   57.3624    3.0073    0.1048 C   0  0  0  0  0  0  0  0  0  0  0  0
   57.1370    1.6814   -0.1520 N   0  0  0  0  0  0  0  0  0  0  0  0
   58.6135    3.5981    0.3123 C   0  0  0  0  0  0  0  0  0  0  0  0
   58.6342    5.0525    0.6110 C   0  0  0  0  0  0  0  0  0  0  0  0
   58.0050    5.5503    1.7544 C   0  0  0  0  0  0  0  0  0  0  0  0
   58.0245    6.9088    2.0384 C   0  0  0  0  0  0  0  0  0  0  0  0
   58.6694    7.7877    1.1844 C   0  0  0  0  0  0  0  0  0  0  0  0
   59.3008    7.3031    0.0377 C   0  0  0  0  0  0  0  0  0  0  0  0
   59.9797    8.2763   -0.8537 C   0  0  0  0  0  0  0  0  0  0  0  0
   60.5600    7.7117   -1.9234 O   0  0  0  0  0  0  0  0  0  0  0  0
   60.0198    9.4642   -0.6582 O   0  0  0  0  0  0  0  0  0  0  0  0
   59.2830    5.9389   -0.2459 C   0  0  0  0  0  0  0  0  0  0  0  0
   59.8477    2.9390    0.2630 C   0  0  0  0  0  0  0  0  0  0  0  0
   61.1293    3.5421    0.5187 C   0  0  0  0  0  0  0  0  0  0  0  0
   62.0650    2.5710    0.3734 C   0  0  0  0  0  0  0  0  0  0  0  0
   61.3669    1.3612    0.0385 C   0  0  0  0  0  0  0  0  0  0  0  0
   60.0266    1.6156   -0.0152 N   0  0  0  0  0  0  0  0  0  0  0  0
   63.0526    0.1037   -0.1368 H   0  0  0  0  0  0  0  0  0  0  0  0
   63.0745   -2.4499   -0.7483 H   0  0  0  0  0  0  0  0  0  0  0  0
   61.1773   -4.2825   -1.2293 H   0  0  0  0  0  0  0  0  0  0  0  0
   59.4378   -5.1795    0.5457 H   0  0  0  0  0  0  0  0  0  0  0  0
   59.9151   -9.6295    0.7558 H   0  0  0  0  0  0  0  0  0  0  0  0
   58.4594   -8.4480   -2.0449 H   0  0  0  0  0  0  0  0  0  0  0  0
   57.5263   -6.8554   -3.6960 H   0  0  0  0  0  0  0  0  0  0  0  0
   57.5630   -4.4323   -3.2385 H   0  0  0  0  0  0  0  0  0  0  0  0
   55.8379   -4.2085   -1.2575 H   0  0  0  0  0  0  0  0  0  0  0  0
   53.9869   -2.2863   -1.0093 H   0  0  0  0  0  0  0  0  0  0  0  0
   54.0737    2.9367   -0.2117 H   0  0  0  0  0  0  0  0  0  0  0  0
   55.9797    4.7628    0.2547 H   0  0  0  0  0  0  0  0  0  0  0  0
   57.5103    4.8623    2.4309 H   0  0  0  0  0  0  0  0  0  0  0  0
   57.5348    7.2795    2.9317 H   0  0  0  0  0  0  0  0  0  0  0  0
   58.6941    8.8517    1.3910 H   0  0  0  0  0  0  0  0  0  0  0  0
   60.9775    8.4113   -2.4515 H   0  0  0  0  0  0  0  0  0  0  0  0
   59.7621    5.5671   -1.1440 H   0  0  0  0  0  0  0  0  0  0  0  0
   61.2875    4.5746    0.7861 H   0  0  0  0  0  0  0  0  0  0  0  0
   63.1344    2.6531    0.4884 H   0  0  0  0  0  0  0  0  0  0  0  0
   37.6859    0.2696   -0.9584 C   0  0  0  0  0  0  0  0  0  0  0  0
   36.4657    0.2564   -0.8896 C   0  0  0  0  0  0  0  0  0  0  0  0
   39.0341    0.2890   -1.0116 C   0  0  0  0  0  0  0  0  0  0  0  0
   40.2560    0.3074   -1.0407 C   0  0  0  0  0  0  0  0  0  0  0  0
   51.1638    0.3867   -0.7499 C   0  0  0  0  0  0  0  0  0  0  0  0
   49.9427    0.4015   -0.8058 C   0  0  0  0  0  0  0  0  0  0  0  0
   52.5114    0.3632   -0.6867 C   0  0  0  0  0  0  0  0  0  0  0  0
   53.7318    0.3332   -0.6283 C   0  0  0  0  0  0  0  0  0  0  0  0
   45.1012    0.3742   -0.9812 Zn  0  0  0  0  0  0  0  0  0  0  0  0
   41.6610    0.3334   -1.0472 C   0  0  0  0  0  0  0  0  0  0  0  0
   42.3276   -0.8239   -1.4976 C   0  0  0  0  0  0  0  0  0  0  0  0
   41.6741   -1.9941   -2.0049 C   0  0  0  0  0  0  0  0  0  0  0  0
   42.6478   -2.8805   -2.3355 C   0  0  0  0  0  0  0  0  0  0  0  0
   43.9059   -2.2637   -2.0194 C   0  0  0  0  0  0  0  0  0  0  0  0
   43.6745   -1.0085   -1.5235 N   0  0  0  0  0  0  0  0  0  0  0  0
   45.1636   -2.8479   -2.2020 C   0  0  0  0  0  0  0  0  0  0  0  0
   45.1944   -4.2341   -2.7341 C   0  0  0  0  0  0  0  0  0  0  0  0
   44.6165   -5.2800   -2.0204 C   0  0  0  0  0  0  0  0  0  0  0  0
   44.6490   -6.5810   -2.5210 C   0  0  0  0  0  0  0  0  0  0  0  0
   44.0186   -7.6532   -1.7109 C   0  0  0  0  0  0  0  0  0  0  0  0
   44.1002   -8.8682   -2.2733 O   0  0  0  0  0  0  0  0  0  0  0  0
   43.4785   -7.4753   -0.6492 O   0  0  0  0  0  0  0  0  0  0  0  0
   45.2604   -6.8436   -3.7469 C   0  0  0  0  0  0  0  0  0  0  0  0
   45.8356   -5.8036   -4.4602 C   0  0  0  0  0  0  0  0  0  0  0  0
   45.8058   -4.5096   -3.9595 C   0  0  0  0  0  0  0  0  0  0  0  0
   46.3972   -2.2497   -1.9227 C   0  0  0  0  0  0  0  0  0  0  0  0
   47.6772   -2.8882   -2.0492 C   0  0  0  0  0  0  0  0  0  0  0  0
   48.6150   -1.9817   -1.6714 C   0  0  0  0  0  0  0  0  0  0  0  0
   46.5795   -0.9742   -1.4600 N   0  0  0  0  0  0  0  0  0  0  0  0
   47.9172   -0.7850   -1.3056 C   0  0  0  0  0  0  0  0  0  0  0  0
   48.5390    0.4016   -0.8664 C   0  0  0  0  0  0  0  0  0  0  0  0
   47.8742    1.5839   -0.4834 C   0  0  0  0  0  0  0  0  0  0  0  0
   48.5297    2.7919   -0.0779 C   0  0  0  0  0  0  0  0  0  0  0  0
   47.5566    3.6925    0.2149 C   0  0  0  0  0  0  0  0  0  0  0  0
   46.2964    3.0374    0.0008 C   0  0  0  0  0  0  0  0  0  0  0  0
   46.5267    1.7596   -0.4339 N   0  0  0  0  0  0  0  0  0  0  0  0
   45.0385    3.6192    0.1903 C   0  0  0  0  0  0  0  0  0  0  0  0
   45.0088    5.0160    0.6949 C   0  0  0  0  0  0  0  0  0  0  0  0
   44.4549    6.0371   -0.0803 C   0  0  0  0  0  0  0  0  0  0  0  0
   44.4234    7.3434    0.3881 C   0  0  0  0  0  0  0  0  0  0  0  0
   44.9403    7.6459    1.6367 C   0  0  0  0  0  0  0  0  0  0  0  0
   45.4955    6.6340    2.4216 C   0  0  0  0  0  0  0  0  0  0  0  0
   46.0361    6.9976    3.7552 C   0  0  0  0  0  0  0  0  0  0  0  0
   46.5593    5.9599    4.4243 O   0  0  0  0  0  0  0  0  0  0  0  0
   46.0206    8.1111    4.2142 O   0  0  0  0  0  0  0  0  0  0  0  0
   45.5306    5.3234    1.9495 C   0  0  0  0  0  0  0  0  0  0  0  0
   43.8039    3.0044   -0.0443 C   0  0  0  0  0  0  0  0  0  0  0  0
   42.5203    3.5935    0.2169 C   0  0  0  0  0  0  0  0  0  0  0  0
   41.5817    2.6741   -0.1257 C   0  0  0  0  0  0  0  0  0  0  0  0
   42.2822    1.5146   -0.5932 C   0  0  0  0  0  0  0  0  0  0  0  0
   43.6220    1.7374   -0.5300 N   0  0  0  0  0  0  0  0  0  0  0  0
   40.6065   -2.1117   -2.1009 H   0  0  0  0  0  0  0  0  0  0  0  0
   42.5261   -3.8622   -2.7641 H   0  0  0  0  0  0  0  0  0  0  0  0
   44.1483   -5.0965   -1.0595 H   0  0  0  0  0  0  0  0  0  0  0  0
   43.6677   -9.5096   -1.6865 H   0  0  0  0  0  0  0  0  0  0  0  0
   45.2831   -7.8546   -4.1350 H   0  0  0  0  0  0  0  0  0  0  0  0
   46.3104   -5.9999   -5.4149 H   0  0  0  0  0  0  0  0  0  0  0  0
   46.2480   -3.6988   -4.5278 H   0  0  0  0  0  0  0  0  0  0  0  0
   47.8370   -3.9048   -2.3710 H   0  0  0  0  0  0  0  0  0  0  0  0
   49.6854   -2.1082   -1.6355 H   0  0  0  0  0  0  0  0  0  0  0  0
   49.5984    2.9288   -0.0322 H   0  0  0  0  0  0  0  0  0  0  0  0
   47.6802    4.7135    0.5381 H   0  0  0  0  0  0  0  0  0  0  0  0
   44.0592    5.8037   -1.0626 H   0  0  0  0  0  0  0  0  0  0  0  0
   43.9940    8.1261   -0.2268 H   0  0  0  0  0  0  0  0  0  0  0  0
   44.9221    8.6602    2.0190 H   0  0  0  0  0  0  0  0  0  0  0  0
   46.8873    6.2803    5.2803 H   0  0  0  0  0  0  0  0  0  0  0  0
   45.9502    4.5373    2.5661 H   0  0  0  0  0  0  0  0  0  0  0  0
   42.3591    4.5787    0.6241 H   0  0  0  0  0  0  0  0  0  0  0  0
   40.5089    2.7644   -0.0643 H   0  0  0  0  0  0  0  0  0  0  0  0
  2  3  4  0  0  0  0
  3  4  1  0  0  0  0
  4  5  2  0  0  0  0
  5  6  4  0  0  0  0
  1  7  1  0  0  0  0
  3  7  4  0  0  0  0
  6  7  4  0  0  0  0
  6  8  4  0  0  0  0
  8  9  1  0  0  0  0
  9 10  4  0  0  0  0
 10 11  4  0  0  0  0
 11 12  1  0  0  0  0
 12 13  4  0  0  0  0
 12 14  2  0  0  0  0
 11 15  4  0  0  0  0
 15 16  4  0  0  0  0
  9 17  4  0  0  0  0
 16 17  4  0  0  0  0
  8 18  4  0  0  0  0
 18 19  4  0  0  0  0
 19 20  2  0  0  0  0
  1 21  1  0  0  0  0
 18 21  4  0  0  0  0
 20 22  4  0  0  0  0
 21 22  4  0  0  0  0
 22 23  4  0  0  0  0
 23 24  4  0  0  0  0
 24 25  4  0  0  0  0
 25 26  2  0  0  0  0
 26 27  4  0  0  0  0
  1 28  1  0  0  0  0
 24 28  4  0  0  0  0
 27 28  4  0  0  0  0
 27 29  4  0  0  0  0
 29 30  1  0  0  0  0
 30 31  4  0  0  0  0
 31 32  4  0  0  0  0
 32 33  4  0  0  0  0
 33 34  4  0  0  0  0
 34 35  1  0  0  0  0
 35 36  4  0  0  0  0
 35 37  2  0  0  0  0
 30 38  4  0  0  0  0
 34 38  4  0  0  0  0
 29 39  4  0  0  0  0
 39 40  4  0  0  0  0
 40 41  2  0  0  0  0
  2 42  4  0  0  0  0
 41 42  1  0  0  0  0
  1 43  1  0  0  0  0
 39 43  4  0  0  0  0
 42 43  4  0  0  0  0
  2 44  1  0  0  0  0
  4 45  1  0  0  0  0
  5 46  1  0  0  0  0
 10 47  1  0  0  0  0
 13 48  1  0  0  0  0
 15 49  1  0  0  0  0
 16 50  1  0  0  0  0
 17 51  1  0  0  0  0
 19 52  1  0  0  0  0
 20 53  1  0  0  0  0
 25 54  1  0  0  0  0
 26 55  1  0  0  0  0
 31 56  1  0  0  0  0
 32 57  1  0  0  0  0
 33 58  1  0  0  0  0
 36 59  1  0  0  0  0
 38 60  1  0  0  0  0
 40 61  1  0  0  0  0
 41 62  1  0  0  0  0
 64 65  4  0  0  0  0
 65 66  1  0  0  0  0
 66 67  2  0  0  0  0
 67 68  4  0  0  0  0
 63 69  1  0  0  0  0
 65 69  4  0  0  0  0
 68 69  4  0  0  0  0
 68 70  4  0  0  0  0
 70 71  1  0  0  0  0
 71 72  4  0  0  0  0
 72 73  4  0  0  0  0
 73 74  1  0  0  0  0
 74 75  4  0  0  0  0
 74 76  2  0  0  0  0
 73 77  4  0  0  0  0
 77 78  4  0  0  0  0
 71 79  4  0  0  0  0
 78 79  4  0  0  0  0
 70 80  4  0  0  0  0
 80 81  4  0  0  0  0
 81 82  2  0  0  0  0
 63 83  1  0  0  0  0
 80 83  4  0  0  0  0
 82 84  4  0  0  0  0
 83 84  4  0  0  0  0
 84 85  4  0  0  0  0
 85 86  4  0  0  0  0
 86 87  4  0  0  0  0
 87 88  2  0  0  0  0
 88 89  4  0  0  0  0
 63 90  1  0  0  0  0
 86 90  4  0  0  0  0
 89 90  4  0  0  0  0
 89 91  4  0  0  0  0
 91 92  1  0  0  0  0
 92 93  4  0  0  0  0
 93 94  4  0  0  0  0
 94 95  4  0  0  0  0
 95 96  4  0  0  0  0
 96 97  1  0  0  0  0
 97 98  4  0  0  0  0
 97 99  2  0  0  0  0
 92100  4  0  0  0  0
 96100  4  0  0  0  0
 91101  4  0  0  0  0
101102  4  0  0  0  0
102103  2  0  0  0  0
 64104  4  0  0  0  0
103104  1  0  0  0  0
 63105  1  0  0  0  0
101105  4  0  0  0  0
104105  4  0  0  0  0
 64106  1  0  0  0  0
 66107  1  0  0  0  0
 67108  1  0  0  0  0
 72109  1  0  0  0  0
 75110  1  0  0  0  0
 77111  1  0  0  0  0
 78112  1  0  0  0  0
 79113  1  0  0  0  0
 81114  1  0  0  0  0
 82115  1  0  0  0  0
 87116  1  0  0  0  0
 88117  1  0  0  0  0
 93118  1  0  0  0  0
 94119  1  0  0  0  0
 95120  1  0  0  0  0
 98121  1  0  0  0  0
100122  1  0  0  0  0
102123  1  0  0  0  0
103124  1  0  0  0  0
 23126  4  0  0  0  0
125126  3  0  0  0  0
125127  4  0  0  0  0
127128  3  0  0  0  0
129130  3  0  0  0  0
129131  4  0  0  0  0
 85132  4  0  0  0  0
131132  3  0  0  0  0
128134  4  0  0  0  0
134135  4  0  0  0  0
135136  4  0  0  0  0
136137  2  0  0  0  0
137138  4  0  0  0  0
133139  1  0  0  0  0
135139  4  0  0  0  0
138139  4  0  0  0  0
138140  4  0  0  0  0
140141  1  0  0  0  0
141142  4  0  0  0  0
142143  4  0  0  0  0
143144  1  0  0  0  0
144145  4  0  0  0  0
144146  2  0  0  0  0
143147  4  0  0  0  0
147148  4  0  0  0  0
141149  4  0  0  0  0
148149  4  0  0  0  0
140150  4  0  0  0  0
150151  4  0  0  0  0
151152  2  0  0  0  0
133153  1  0  0  0  0
150153  4  0  0  0  0
152154  4  0  0  0  0
153154  4  0  0  0  0
130155  4  0  0  0  0
154155  4  0  0  0  0
155156  4  0  0  0  0
156157  4  0  0  0  0
157158  2  0  0  0  0
158159  4  0  0  0  0
133160  1  0  0  0  0
156160  4  0  0  0  0
159160  4  0  0  0  0
159161  4  0  0  0  0
161162  1  0  0  0  0
162163  4  0  0  0  0
163164  4  0  0  0  0
164165  4  0  0  0  0
165166  4  0  0  0  0
166167  1  0  0  0  0
167168  4  0  0  0  0
167169  2  0  0  0  0
162170  4  0  0  0  0
166170  4  0  0  0  0
161171  4  0  0  0  0
171172  4  0  0  0  0
172173  2  0  0  0  0
134174  4  0  0  0  0
173174  4  0  0  0  0
133175  1  0  0  0  0
171175  4  0  0  0  0
174175  4  0  0  0  0
136176  1  0  0  0  0
137177  1  0  0  0  0
142178  1  0  0  0  0
145179  1  0  0  0  0
147180  1  0  0  0  0
148181  1  0  0  0  0
149182  1  0  0  0  0
151183  1  0  0  0  0
152184  1  0  0  0  0
157185  1  0  0  0  0
158186  1  0  0  0  0
163187  1  0  0  0  0
164188  1  0  0  0  0
165189  1  0  0  0  0
168190  1  0  0  0  0
170191  1  0  0  0  0
172192  1  0  0  0  0
173193  1  0  0  0  0
M  END
