193

Zn 32.880396 0.041810 -0.416440
C 29.535940 0.197605 -0.328006
C 30.187361 1.359836 -0.226875
C 29.524611 2.656422 -0.155678
C 30.456293 3.583443 -0.032266
C 31.767605 2.920690 -0.005654
N 31.603598 1.508270 -0.139492
C 32.954064 3.546074 0.142748
C 32.989962 5.016254 0.318744
C 32.501173 5.602663 1.497421
C 32.545549 6.997984 1.673526
C 32.025970 7.619146 2.911788
O 32.076832 9.000731 3.078737
O 31.532470 6.905044 3.826345
C 33.093102 7.797398 0.655002
C 33.586889 7.213574 -0.514566
C 33.538063 5.828781 -0.683269
C 34.252042 2.821396 0.149118
C 35.529707 3.437917 0.526720
C 36.472766 2.528183 0.388964
N 34.406289 1.581416 -0.201580
C 35.803951 1.319220 -0.075884
C 36.408910 0.164520 -0.398651
C 35.656288 -1.026696 -0.850661
C 36.196039 -2.048271 -1.503339
C 35.162386 -3.052801 -1.662347
C 34.060630 -2.579797 -1.091335
N 34.282584 -1.275771 -0.552167
C 32.789060 -3.337385 -0.966686
C 32.824970 -4.812227 -1.122139
C 33.569645 -5.592865 -0.226620
C 33.621263 -6.979430 -0.378828
C 32.935516 -7.597625 -1.427415
C 32.190582 -6.830529 -2.341198
C 31.465883 -7.479312 -3.456130
O 30.728333 -6.712523 -4.354649
O 31.508464 -8.730885 -3.603148
C 32.144805 -5.434101 -2.182532
C 31.621269 -2.715517 -0.714033
C 30.319791 -3.357071 -0.535209
C 29.448970 -2.380501 -0.368267
C 30.185723 -1.119076 -0.425981
N 31.452402 -1.302101 -0.627180
H 28.452351 0.214928 -0.337348
H 28.459395 2.843539 -0.201039
H 30.258506 4.645248 0.034504
H 32.089258 4.967075 2.272460
H 31.723581 9.436267 3.922425
H 33.142020 8.873765 0.761259
H 34.009051 7.836830 -1.292293
H 33.925170 5.388565 -1.594118
H 35.691042 4.453896 0.862384
H 37.525137 2.679884 0.588780
H 37.222388 -2.135855 -1.833774
H 35.279845 -4.019074 -2.135546
H 34.106535 -5.126663 0.590527
H 34.194809 -7.577281 0.317701
H 32.990639 -8.674760 -1.523702
H 30.228321 -7.146716 -5.121262
H 31.585157 -4.823939 -2.881456
H 30.087723 -4.413925 -0.534303
H 28.385463 -2.505442 -0.212446
Zn 57.341299 0.286321 -0.375441
C 60.685755 0.110201 -0.342662
C 60.034334 -1.021451 -0.626161
C 60.697083 -2.270346 -0.981782
C 59.765401 -3.186919 -1.167499
C 58.454089 -2.569095 -0.926164
N 58.618097 -1.190269 -0.591974
C 57.267630 -3.208681 -0.989868
C 57.231732 -4.655858 -1.303044
C 57.720521 -5.594659 -0.380111
C 57.676145 -6.971109 -0.668766
C 58.195724 -7.962196 0.299159
O 58.144863 -9.322673 0.006327
O 58.689225 -7.585463 1.396623
C 57.128592 -7.394574 -1.892340
C 56.634806 -6.461189 -2.807506
C 56.683631 -5.097107 -2.515286
C 55.969652 -2.525715 -0.747469
C 54.691987 -3.231684 -0.591617
C 53.748928 -2.326773 -0.425099
N 55.815405 -1.239163 -0.674525
C 54.417743 -1.032307 -0.470181
C 53.812785 0.164520 -0.398651
C 54.565406 1.438022 -0.437385
C 54.025656 2.616616 -0.721145
C 55.059309 3.618071 -0.543796
C 56.161064 2.984683 -0.158301
N 55.939111 1.576111 -0.073972
C 57.432634 3.660177 0.206643
C 57.396725 5.105062 0.540760
C 56.652050 5.550901 1.641931
C 56.600431 6.911278 1.950321
C 57.286178 7.837693 1.160729
C 58.031113 7.410612 0.046710
C 58.755812 8.387583 -0.795620
O 59.493362 7.955814 -1.895110
O 58.713230 9.618658 -0.526356
C 58.076890 6.038805 -0.258792
C 58.600425 2.989910 0.242635
C 59.901903 3.538047 0.620942
C 60.772725 2.560435 0.460214
C 60.035971 1.386827 -0.005799
N 58.769292 1.625469 -0.136295
H 61.769343 0.096873 -0.357144
H 61.762299 -2.432433 -1.085697
H 59.963188 -4.212430 -1.450723
H 58.132437 -5.246639 0.559858
H 58.498113 -10.009585 0.661807
H 57.079674 -8.446731 -2.142986
H 56.212644 -6.796675 -3.745992
H 56.296524 -4.383864 -3.232727
H 54.530652 -4.301585 -0.605707
H 52.696557 -2.535354 -0.285694
H 52.999306 2.807192 -1.004940
H 54.941850 4.685844 -0.675933
H 56.115160 4.843658 2.262318
H 56.026885 7.249235 2.803764
H 57.231055 8.887323 1.421052
H 59.993374 8.616315 -2.478168
H 58.636537 5.689992 -1.118513
H 60.133972 4.536802 0.966526
H 61.836231 2.627716 0.648266
C 38.640074 0.176691 -0.396284
C 37.387803 0.157510 -0.400633
C 39.953742 0.175925 -0.394352
C 41.456876 0.157510 -0.400633
C 50.110638 0.176691 -0.396284
C 48.858367 0.157510 -0.400633
C 51.424306 0.175925 -0.394352
C 52.927439 0.157510 -0.400633
Zn 44.895482 -0.291796 0.207522
C 41.973505 -0.355091 0.862914
C 42.310412 -1.365670 0.060633
C 42.006928 -1.422424 -1.371076
C 42.849484 -2.264533 -1.949728
C 43.822203 -2.687631 -0.939575
N 43.461587 -2.156445 0.332756
C 45.046761 -3.172540 -1.213520
C 45.330935 -3.866676 -2.497756
C 44.464529 -4.870263 -2.968809
C 44.727696 -5.540112 -4.177887
C 43.812006 -6.591775 -4.673106
O 44.086405 -7.256825 -5.865502
O 42.775436 -6.894978 -4.022124
C 45.876043 -5.198652 -4.911288
C 46.743399 -4.208591 -4.445650
C 46.476128 -3.546322 -3.246632
C 46.177853 -2.772675 -0.350976
C 47.311185 -3.622744 0.018145
C 48.218280 -2.847531 0.593820
N 46.392698 -1.532462 -0.046929
C 47.677953 -1.489556 0.560607
C 48.335288 -0.355091 0.862914
C 47.726278 0.981054 0.641193
C 48.398029 2.117872 0.505185
C 47.420135 3.175873 0.278795
C 46.214198 2.615922 0.304910
N 46.325334 1.210094 0.528253
C 44.913649 3.339211 0.156898
C 44.905941 4.817900 0.067785
C 44.417953 5.453182 -1.083344
C 44.409051 6.846545 -1.165660
C 44.886378 7.616594 -0.102198
C 45.378941 6.997177 1.060612
C 45.885389 7.807725 2.190054
O 46.373795 7.186478 3.336591
O 45.880081 9.066996 2.125449
C 45.383170 5.593088 1.136838
C 43.744768 2.665548 0.169123
C 42.393313 3.224728 0.257628
C 41.576654 2.197536 0.458205
C 42.396174 0.986269 0.456526
N 43.648232 1.257429 0.301474
H 41.234160 -0.865232 -1.884684
H 42.885450 -2.464364 -3.012744
H 43.589681 -5.131939 -2.385550
H 43.465900 -7.977848 -6.213860
H 46.105863 -5.696212 -5.845035
H 47.625570 -3.951905 -5.017857
H 47.157856 -2.774619 -2.911355
H 47.410214 -4.685334 -0.159884
H 49.183366 -3.173183 0.958400
H 49.472629 2.238484 0.533489
H 47.642259 4.223123 0.123610
H 44.047508 4.868217 -1.916351
H 44.031952 7.331702 -2.056714
H 44.869530 8.695701 -0.190481
H 46.722615 7.732229 4.115491
H 45.752508 5.096346 2.026087
H 42.101716 4.266612 0.234798
H 40.507851 2.259756 0.614052
