 xtb: 6.5.1 (b24c23e)
          07302212213D

264303  0     0  0            999 V2000
   50.0650   -0.0397   -0.0021 Zn  0  0  0  0  0  0  0  0  0  0  0  0
   46.6568   -0.1291    0.0205 C   0  0  0  0  0  0  0  0  0  0  0  0
   47.2849   -0.1685    1.2593 C   0  0  0  0  0  0  0  0  0  0  0  0
   46.6087   -0.2071    2.5259 C   0  0  0  0  0  0  0  0  0  0  0  0
   47.5657   -0.2151    3.4868 C   0  0  0  0  0  0  0  0  0  0  0  0
   48.8400   -0.1921    2.8178 C   0  0  0  0  0  0  0  0  0  0  0  0
   48.6341   -0.1569    1.4700 N   0  0  0  0  0  0  0  0  0  0  0  0
   50.0902   -0.1726    3.4487 C   0  0  0  0  0  0  0  0  0  0  0  0
   51.3303   -0.1094    2.8033 C   0  0  0  0  0  0  0  0  0  0  0  0
   52.6095   -0.1455    3.4576 C   0  0  0  0  0  0  0  0  0  0  0  0
   53.5568   -0.0889    2.4874 C   0  0  0  0  0  0  0  0  0  0  0  0
   51.5252   -0.0425    1.4501 N   0  0  0  0  0  0  0  0  0  0  0  0
   52.8678   -0.0250    1.2317 C   0  0  0  0  0  0  0  0  0  0  0  0
   53.4997    0.0329   -0.0259 C   0  0  0  0  0  0  0  0  0  0  0  0
   52.8484    0.0757   -1.2741 C   0  0  0  0  0  0  0  0  0  0  0  0
   53.5178    0.1098   -2.5415 C   0  0  0  0  0  0  0  0  0  0  0  0
   52.5555    0.1353   -3.4982 C   0  0  0  0  0  0  0  0  0  0  0  0
   51.2867    0.1243   -2.8232 C   0  0  0  0  0  0  0  0  0  0  0  0
   50.0364    0.1225   -3.4520 C   0  0  0  0  0  0  0  0  0  0  0  0
   50.0231    0.1987   -4.9331 C   0  0  0  0  0  0  0  0  0  0  0  0
   49.4740   -0.8390   -5.6912 C   0  0  0  0  0  0  0  0  0  0  0  0
   49.4619   -0.7650   -7.0717 C   0  0  0  0  0  0  0  0  0  0  0  0
   49.9946    0.3503   -7.7215 C   0  0  0  0  0  0  0  0  0  0  0  0
   49.9557    0.3852   -9.2023 C   0  0  0  0  0  0  0  0  0  0  0  0
   50.4980    1.4944   -9.7284 O   0  0  0  0  0  0  0  0  0  0  0  0
   49.4879   -0.4852   -9.8921 O   0  0  0  0  0  0  0  0  0  0  0  0
   50.5426    1.3901   -6.9695 C   0  0  0  0  0  0  0  0  0  0  0  0
   50.5576    1.3114   -5.5881 C   0  0  0  0  0  0  0  0  0  0  0  0
   48.7960    0.0548   -2.8054 C   0  0  0  0  0  0  0  0  0  0  0  0
   47.5113    0.0961   -3.4534 C   0  0  0  0  0  0  0  0  0  0  0  0
   46.5694    0.0207   -2.4805 C   0  0  0  0  0  0  0  0  0  0  0  0
   47.2654   -0.0563   -1.2265 C   0  0  0  0  0  0  0  0  0  0  0  0
   48.6112   -0.0290   -1.4567 N   0  0  0  0  0  0  0  0  0  0  0  0
   51.5025    0.0802   -1.4722 N   0  0  0  0  0  0  0  0  0  0  0  0
   50.0999   -0.2237    4.9309 C   0  0  0  0  0  0  0  0  0  0  0  0
   49.5729   -1.3286    5.6051 C   0  0  0  0  0  0  0  0  0  0  0  0
   49.5826   -1.3738    6.9869 C   0  0  0  0  0  0  0  0  0  0  0  0
   50.1150   -0.3127    7.7220 C   0  0  0  0  0  0  0  0  0  0  0  0
   50.0995   -0.4055    9.2009 C   0  0  0  0  0  0  0  0  0  0  0  0
   50.6344    0.6629    9.8120 O   0  0  0  0  0  0  0  0  0  0  0  0
   49.6556   -1.3391    9.8199 O   0  0  0  0  0  0  0  0  0  0  0  0
   50.6409    0.7938    7.0541 C   0  0  0  0  0  0  0  0  0  0  0  0
   50.6345    0.8342    5.6709 C   0  0  0  0  0  0  0  0  0  0  0  0
   45.5713   -0.1447    0.0283 H   0  0  0  0  0  0  0  0  0  0  0  0
   45.5374   -0.2182    2.6518 H   0  0  0  0  0  0  0  0  0  0  0  0
   47.4256   -0.2232    4.5559 H   0  0  0  0  0  0  0  0  0  0  0  0
   52.7617   -0.2197    4.5223 H   0  0  0  0  0  0  0  0  0  0  0  0
   54.6289   -0.0957    2.6035 H   0  0  0  0  0  0  0  0  0  0  0  0
   54.5880    0.1075   -2.6743 H   0  0  0  0  0  0  0  0  0  0  0  0
   52.6911    0.1457   -4.5677 H   0  0  0  0  0  0  0  0  0  0  0  0
   49.0716   -1.7117   -5.1894 H   0  0  0  0  0  0  0  0  0  0  0  0
   49.0418   -1.5693   -7.6658 H   0  0  0  0  0  0  0  0  0  0  0  0
   50.4328    1.4387  -10.6955 H   0  0  0  0  0  0  0  0  0  0  0  0
   50.9539    2.2593   -7.4692 H   0  0  0  0  0  0  0  0  0  0  0  0
   50.9718    2.1254   -5.0037 H   0  0  0  0  0  0  0  0  0  0  0  0
   47.3543    0.1847   -4.5164 H   0  0  0  0  0  0  0  0  0  0  0  0
   45.4962    0.0242   -2.5899 H   0  0  0  0  0  0  0  0  0  0  0  0
   49.1706   -2.1592    5.0362 H   0  0  0  0  0  0  0  0  0  0  0  0
   49.1800   -2.2306    7.5159 H   0  0  0  0  0  0  0  0  0  0  0  0
   50.5860    0.5240   10.7717 H   0  0  0  0  0  0  0  0  0  0  0  0
   51.0520    1.6211    7.6204 H   0  0  0  0  0  0  0  0  0  0  0  0
   51.0316    1.6997    5.1525 H   0  0  0  0  0  0  0  0  0  0  0  0
   98.2290   -0.0280   -0.0498 Zn  0  0  0  0  0  0  0  0  0  0  0  0
  101.6370   -0.1243   -0.0848 C   0  0  0  0  0  0  0  0  0  0  0  0
  101.0084   -0.0185   -1.3195 C   0  0  0  0  0  0  0  0  0  0  0  0
  101.6842    0.0868   -2.5825 C   0  0  0  0  0  0  0  0  0  0  0  0
  100.7269    0.1930   -3.5373 C   0  0  0  0  0  0  0  0  0  0  0  0
   99.4529    0.1437   -2.8692 C   0  0  0  0  0  0  0  0  0  0  0  0
   99.6593    0.0221   -1.5265 N   0  0  0  0  0  0  0  0  0  0  0  0
   98.2028    0.2422   -3.4927 C   0  0  0  0  0  0  0  0  0  0  0  0
   96.9630    0.2371   -2.8435 C   0  0  0  0  0  0  0  0  0  0  0  0
   95.6836    0.2856   -3.4966 C   0  0  0  0  0  0  0  0  0  0  0  0
   94.7367    0.2333   -2.5257 C   0  0  0  0  0  0  0  0  0  0  0  0
   96.7686    0.1458   -1.4916 N   0  0  0  0  0  0  0  0  0  0  0  0
   95.4261    0.1448   -1.2718 C   0  0  0  0  0  0  0  0  0  0  0  0
   94.7945    0.0535   -0.0160 C   0  0  0  0  0  0  0  0  0  0  0  0
   95.4460   -0.0573    1.2279 C   0  0  0  0  0  0  0  0  0  0  0  0
   94.7769   -0.1736    2.4906 C   0  0  0  0  0  0  0  0  0  0  0  0
   95.7395   -0.2646    3.4430 C   0  0  0  0  0  0  0  0  0  0  0  0
   97.0082   -0.1971    2.7709 C   0  0  0  0  0  0  0  0  0  0  0  0
   98.2586   -0.2746    3.3948 C   0  0  0  0  0  0  0  0  0  0  0  0
   98.2723   -0.3727    4.8745 C   0  0  0  0  0  0  0  0  0  0  0  0
   98.8221   -1.4921    5.5055 C   0  0  0  0  0  0  0  0  0  0  0  0
   98.8354   -1.5802    6.8852 C   0  0  0  0  0  0  0  0  0  0  0  0
   98.3032   -0.5487    7.6614 C   0  0  0  0  0  0  0  0  0  0  0  0
   98.3437   -0.6871    9.1362 C   0  0  0  0  0  0  0  0  0  0  0  0
   97.8012    0.3525    9.7888 O   0  0  0  0  0  0  0  0  0  0  0  0
   98.8131   -1.6318    9.7188 O   0  0  0  0  0  0  0  0  0  0  0  0
   97.7542    0.5719    7.0368 C   0  0  0  0  0  0  0  0  0  0  0  0
   97.7382    0.6554    5.6557 C   0  0  0  0  0  0  0  0  0  0  0  0
   99.4988   -0.2669    2.7443 C   0  0  0  0  0  0  0  0  0  0  0  0
  100.7837   -0.3034    3.3921 C   0  0  0  0  0  0  0  0  0  0  0  0
  101.7253   -0.2661    2.4167 C   0  0  0  0  0  0  0  0  0  0  0  0
  101.0288   -0.1952    1.1626 C   0  0  0  0  0  0  0  0  0  0  0  0
   99.6832   -0.1927    1.3950 N   0  0  0  0  0  0  0  0  0  0  0  0
   96.7920   -0.0797    1.4245 N   0  0  0  0  0  0  0  0  0  0  0  0
   98.1926    0.3622   -4.9709 C   0  0  0  0  0  0  0  0  0  0  0  0
   98.7128   -0.6612   -5.7679 C   0  0  0  0  0  0  0  0  0  0  0  0
   98.7022   -0.5476   -7.1458 C   0  0  0  0  0  0  0  0  0  0  0  0
   98.1760    0.5939   -7.7538 C   0  0  0  0  0  0  0  0  0  0  0  0
   98.1899    0.6710   -9.2335 C   0  0  0  0  0  0  0  0  0  0  0  0
   97.6635    1.8066   -9.7176 O   0  0  0  0  0  0  0  0  0  0  0  0
   98.6259   -0.1890   -9.9562 O   0  0  0  0  0  0  0  0  0  0  0  0
   97.6573    1.6198   -6.9629 C   0  0  0  0  0  0  0  0  0  0  0  0
   97.6644    1.5012   -5.5842 C   0  0  0  0  0  0  0  0  0  0  0  0
  102.7224   -0.1415   -0.0949 H   0  0  0  0  0  0  0  0  0  0  0  0
  102.7554    0.0864   -2.7095 H   0  0  0  0  0  0  0  0  0  0  0  0
  100.8667    0.3076   -4.6003 H   0  0  0  0  0  0  0  0  0  0  0  0
   95.5308    0.3379   -4.5625 H   0  0  0  0  0  0  0  0  0  0  0  0
   93.6646    0.2465   -2.6409 H   0  0  0  0  0  0  0  0  0  0  0  0
   93.7068   -0.1895    2.6227 H   0  0  0  0  0  0  0  0  0  0  0  0
   95.6042   -0.3819    4.5061 H   0  0  0  0  0  0  0  0  0  0  0  0
   99.2240   -2.3001    4.9047 H   0  0  0  0  0  0  0  0  0  0  0  0
   99.2560   -2.4483    7.3807 H   0  0  0  0  0  0  0  0  0  0  0  0
   97.8671    0.1843   10.7428 H   0  0  0  0  0  0  0  0  0  0  0  0
   97.3433    1.3765    7.6351 H   0  0  0  0  0  0  0  0  0  0  0  0
   97.3235    1.5322    5.1709 H   0  0  0  0  0  0  0  0  0  0  0  0
  100.9411   -0.3397    4.4582 H   0  0  0  0  0  0  0  0  0  0  0  0
  102.7984   -0.2770    2.5253 H   0  0  0  0  0  0  0  0  0  0  0  0
   99.1105   -1.5537   -5.2984 H   0  0  0  0  0  0  0  0  0  0  0  0
   99.0995   -1.3405   -7.7700 H   0  0  0  0  0  0  0  0  0  0  0  0
   97.7109    1.7783  -10.6869 H   0  0  0  0  0  0  0  0  0  0  0  0
   97.2508    2.5090   -7.4301 H   0  0  0  0  0  0  0  0  0  0  0  0
   97.2726    2.3039   -4.9695 H   0  0  0  0  0  0  0  0  0  0  0  0
   58.7039    0.0205   -0.0495 C   0  0  0  0  0  0  0  0  0  0  0  0
   57.4762    0.0289   -0.0487 C   0  0  0  0  0  0  0  0  0  0  0  0
   56.1304    0.0341   -0.0429 C   0  0  0  0  0  0  0  0  0  0  0  0
   54.9070    0.0365   -0.0362 C   0  0  0  0  0  0  0  0  0  0  0  0
   60.0497    0.0145   -0.0501 C   0  0  0  0  0  0  0  0  0  0  0  0
   61.2731    0.0073   -0.0474 C   0  0  0  0  0  0  0  0  0  0  0  0
   74.7613    0.0255   -0.0067 C   0  0  0  0  0  0  0  0  0  0  0  0
   73.5327    0.0287   -0.0072 C   0  0  0  0  0  0  0  0  0  0  0  0
   72.1889    0.0301   -0.0093 C   0  0  0  0  0  0  0  0  0  0  0  0
   70.9646    0.0320   -0.0112 C   0  0  0  0  0  0  0  0  0  0  0  0
   76.1051    0.0239   -0.0057 C   0  0  0  0  0  0  0  0  0  0  0  0
   77.3294    0.0222   -0.0058 C   0  0  0  0  0  0  0  0  0  0  0  0
   90.8180    0.0592    0.0047 C   0  0  0  0  0  0  0  0  0  0  0  0
   89.5902    0.0520    0.0063 C   0  0  0  0  0  0  0  0  0  0  0  0
   88.2446    0.0456    0.0060 C   0  0  0  0  0  0  0  0  0  0  0  0
   87.0210    0.0389    0.0040 C   0  0  0  0  0  0  0  0  0  0  0  0
   92.1638    0.0616    0.0013 C   0  0  0  0  0  0  0  0  0  0  0  0
   93.3872    0.0615   -0.0049 C   0  0  0  0  0  0  0  0  0  0  0  0
   66.1197    0.0189   -0.0257 Zn  0  0  0  0  0  0  0  0  0  0  0  0
   62.6799    0.0092   -0.0427 C   0  0  0  0  0  0  0  0  0  0  0  0
   63.3263   -1.2419   -0.0057 C   0  0  0  0  0  0  0  0  0  0  0  0
   62.6526   -2.5069   -0.0061 C   0  0  0  0  0  0  0  0  0  0  0  0
   63.6111   -3.4669    0.0422 C   0  0  0  0  0  0  0  0  0  0  0  0
   64.8804   -2.7955    0.0820 C   0  0  0  0  0  0  0  0  0  0  0  0
   64.6709   -1.4436    0.0410 N   0  0  0  0  0  0  0  0  0  0  0  0
   66.1287   -3.4265    0.1289 C   0  0  0  0  0  0  0  0  0  0  0  0
   67.3733   -2.7873    0.1183 C   0  0  0  0  0  0  0  0  0  0  0  0
   68.6460   -3.4456    0.2199 C   0  0  0  0  0  0  0  0  0  0  0  0
   69.5995   -2.4801    0.1798 C   0  0  0  0  0  0  0  0  0  0  0  0
   67.5762   -1.4359    0.0348 N   0  0  0  0  0  0  0  0  0  0  0  0
   68.9191   -1.2243    0.0633 C   0  0  0  0  0  0  0  0  0  0  0  0
   69.5601    0.0290   -0.0145 C   0  0  0  0  0  0  0  0  0  0  0  0
   68.9128    1.2787   -0.0955 C   0  0  0  0  0  0  0  0  0  0  0  0
   69.5871    2.5385   -0.2039 C   0  0  0  0  0  0  0  0  0  0  0  0
   68.6285    3.4989   -0.2493 C   0  0  0  0  0  0  0  0  0  0  0  0
   67.3589    2.8331   -0.1599 C   0  0  0  0  0  0  0  0  0  0  0  0
   66.1107    3.4649   -0.1805 C   0  0  0  0  0  0  0  0  0  0  0  0
   66.1060    4.9471   -0.2444 C   0  0  0  0  0  0  0  0  0  0  0  0
   66.6703    5.7016    0.7877 C   0  0  0  0  0  0  0  0  0  0  0  0
   66.6596    7.0829    0.7292 C   0  0  0  0  0  0  0  0  0  0  0  0
   66.0896    7.7365   -0.3650 C   0  0  0  0  0  0  0  0  0  0  0  0
   66.1022    9.2185   -0.3824 C   0  0  0  0  0  0  0  0  0  0  0  0
   65.5245    9.7480   -1.4719 O   0  0  0  0  0  0  0  0  0  0  0  0
   66.5775    9.9055    0.4859 O   0  0  0  0  0  0  0  0  0  0  0  0
   65.5287    6.9880   -1.4004 C   0  0  0  0  0  0  0  0  0  0  0  0
   65.5357    5.6056   -1.3368 C   0  0  0  0  0  0  0  0  0  0  0  0
   64.8657    2.8265   -0.1455 C   0  0  0  0  0  0  0  0  0  0  0  0
   63.5925    3.4907   -0.1155 C   0  0  0  0  0  0  0  0  0  0  0  0
   62.6390    2.5251   -0.0774 C   0  0  0  0  0  0  0  0  0  0  0  0
   63.3198    1.2641   -0.0738 C   0  0  0  0  0  0  0  0  0  0  0  0
   64.6635    1.4734   -0.1090 N   0  0  0  0  0  0  0  0  0  0  0  0
   67.5686    1.4827   -0.0778 N   0  0  0  0  0  0  0  0  0  0  0  0
   66.1334   -4.9086    0.1958 C   0  0  0  0  0  0  0  0  0  0  0  0
   65.5589   -5.5700    1.2845 C   0  0  0  0  0  0  0  0  0  0  0  0
   65.5677   -6.9512    1.3463 C   0  0  0  0  0  0  0  0  0  0  0  0
   66.1464   -7.6980    0.3182 C   0  0  0  0  0  0  0  0  0  0  0  0
   66.1281   -9.1760    0.4278 C   0  0  0  0  0  0  0  0  0  0  0  0
   66.7146   -9.7987   -0.6060 O   0  0  0  0  0  0  0  0  0  0  0  0
   65.6399   -9.7844    1.3462 O   0  0  0  0  0  0  0  0  0  0  0  0
   66.7192   -7.0427   -0.7723 C   0  0  0  0  0  0  0  0  0  0  0  0
   66.7139   -5.6600   -0.8293 C   0  0  0  0  0  0  0  0  0  0  0  0
   61.5828   -2.6361   -0.0456 H   0  0  0  0  0  0  0  0  0  0  0  0
   63.4726   -4.5360    0.0391 H   0  0  0  0  0  0  0  0  0  0  0  0
   68.7901   -4.5091    0.3220 H   0  0  0  0  0  0  0  0  0  0  0  0
   70.6699   -2.5996    0.2318 H   0  0  0  0  0  0  0  0  0  0  0  0
   70.6572    2.6642   -0.2465 H   0  0  0  0  0  0  0  0  0  0  0  0
   68.7673    4.5635   -0.3470 H   0  0  0  0  0  0  0  0  0  0  0  0
   67.1022    5.1961    1.6440 H   0  0  0  0  0  0  0  0  0  0  0  0
   67.0901    7.6745    1.5298 H   0  0  0  0  0  0  0  0  0  0  0  0
   65.5729   10.7154   -1.4054 H   0  0  0  0  0  0  0  0  0  0  0  0
   65.0892    7.4908   -2.2537 H   0  0  0  0  0  0  0  0  0  0  0  0
   65.1099    5.0238   -2.1466 H   0  0  0  0  0  0  0  0  0  0  0  0
   63.4476    4.5590   -0.1112 H   0  0  0  0  0  0  0  0  0  0  0  0
   61.5682    2.6487   -0.0467 H   0  0  0  0  0  0  0  0  0  0  0  0
   65.1199   -4.9917    2.0896 H   0  0  0  0  0  0  0  0  0  0  0  0
   65.1287   -7.4706    2.1911 H   0  0  0  0  0  0  0  0  0  0  0  0
   66.6603  -10.7568   -0.4580 H   0  0  0  0  0  0  0  0  0  0  0  0
   67.1664   -7.6182   -1.5742 H   0  0  0  0  0  0  0  0  0  0  0  0
   67.1485   -5.1513   -1.6824 H   0  0  0  0  0  0  0  0  0  0  0  0
   82.1742    0.0292   -0.0018 Zn  0  0  0  0  0  0  0  0  0  0  0  0
   78.7339    0.0236   -0.0054 C   0  0  0  0  0  0  0  0  0  0  0  0
   79.3801   -1.2288    0.0305 C   0  0  0  0  0  0  0  0  0  0  0  0
   78.7048   -2.4928    0.0326 C   0  0  0  0  0  0  0  0  0  0  0  0
   79.6624   -3.4540    0.0778 C   0  0  0  0  0  0  0  0  0  0  0  0
   80.9325   -2.7840    0.1137 C   0  0  0  0  0  0  0  0  0  0  0  0
   80.7239   -1.4315    0.0731 N   0  0  0  0  0  0  0  0  0  0  0  0
   82.1800   -3.4160    0.1578 C   0  0  0  0  0  0  0  0  0  0  0  0
   83.4256   -2.7779    0.1454 C   0  0  0  0  0  0  0  0  0  0  0  0
   84.6976   -3.4375    0.2463 C   0  0  0  0  0  0  0  0  0  0  0  0
   85.6521   -2.4731    0.2044 C   0  0  0  0  0  0  0  0  0  0  0  0
   83.6295   -1.4272    0.0601 N   0  0  0  0  0  0  0  0  0  0  0  0
   84.9732   -1.2165    0.0867 C   0  0  0  0  0  0  0  0  0  0  0  0
   85.6143    0.0351    0.0022 C   0  0  0  0  0  0  0  0  0  0  0  0
   84.9689    1.2844   -0.0858 C   0  0  0  0  0  0  0  0  0  0  0  0
   85.6441    2.5429   -0.2047 C   0  0  0  0  0  0  0  0  0  0  0  0
   84.6866    3.5040   -0.2523 C   0  0  0  0  0  0  0  0  0  0  0  0
   83.4165    2.8405   -0.1534 C   0  0  0  0  0  0  0  0  0  0  0  0
   82.1688    3.4744   -0.1704 C   0  0  0  0  0  0  0  0  0  0  0  0
   82.1670    4.9562   -0.2414 C   0  0  0  0  0  0  0  0  0  0  0  0
   82.7416    5.7142    0.7825 C   0  0  0  0  0  0  0  0  0  0  0  0
   82.7381    7.0951    0.7153 C   0  0  0  0  0  0  0  0  0  0  0  0
   82.1649    7.7449   -0.3796 C   0  0  0  0  0  0  0  0  0  0  0  0
   82.1909    9.2265   -0.4092 C   0  0  0  0  0  0  0  0  0  0  0  0
   81.6102    9.7524   -1.4987 O   0  0  0  0  0  0  0  0  0  0  0  0
   82.6803    9.9160    0.4492 O   0  0  0  0  0  0  0  0  0  0  0  0
   81.5912    6.9929   -1.4055 C   0  0  0  0  0  0  0  0  0  0  0  0
   81.5912    5.6109   -1.3332 C   0  0  0  0  0  0  0  0  0  0  0  0
   80.9235    2.8383   -0.1259 C   0  0  0  0  0  0  0  0  0  0  0  0
   79.6513    3.5042   -0.0911 C   0  0  0  0  0  0  0  0  0  0  0  0
   78.6968    2.5399   -0.0448 C   0  0  0  0  0  0  0  0  0  0  0  0
   79.3761    1.2782   -0.0414 C   0  0  0  0  0  0  0  0  0  0  0  0
   80.7193    1.4851   -0.0840 N   0  0  0  0  0  0  0  0  0  0  0  0
   83.6245    1.4906   -0.0646 N   0  0  0  0  0  0  0  0  0  0  0  0
   82.1822   -4.8982    0.2220 C   0  0  0  0  0  0  0  0  0  0  0  0
   81.6083   -5.5611    1.3102 C   0  0  0  0  0  0  0  0  0  0  0  0
   81.6119   -6.9425    1.3673 C   0  0  0  0  0  0  0  0  0  0  0  0
   82.1846   -7.6880    0.3350 C   0  0  0  0  0  0  0  0  0  0  0  0
   82.1616   -9.1663    0.4399 C   0  0  0  0  0  0  0  0  0  0  0  0
   82.7421   -9.7876   -0.5982 O   0  0  0  0  0  0  0  0  0  0  0  0
   81.6750   -9.7760    1.3582 O   0  0  0  0  0  0  0  0  0  0  0  0
   82.7569   -7.0313   -0.7550 C   0  0  0  0  0  0  0  0  0  0  0  0
   82.7569   -5.6484   -0.8072 C   0  0  0  0  0  0  0  0  0  0  0  0
   77.6347   -2.6208   -0.0035 H   0  0  0  0  0  0  0  0  0  0  0  0
   79.5225   -4.5229    0.0751 H   0  0  0  0  0  0  0  0  0  0  0  0
   84.8404   -4.5011    0.3492 H   0  0  0  0  0  0  0  0  0  0  0  0
   86.7225   -2.5938    0.2553 H   0  0  0  0  0  0  0  0  0  0  0  0
   86.7142    2.6671   -0.2522 H   0  0  0  0  0  0  0  0  0  0  0  0
   84.8266    4.5678   -0.3573 H   0  0  0  0  0  0  0  0  0  0  0  0
   83.1766    5.2117    1.6389 H   0  0  0  0  0  0  0  0  0  0  0  0
   83.1776    7.6893    1.5089 H   0  0  0  0  0  0  0  0  0  0  0  0
   81.6694   10.7198   -1.4413 H   0  0  0  0  0  0  0  0  0  0  0  0
   81.1481    7.4928   -2.2586 H   0  0  0  0  0  0  0  0  0  0  0  0
   81.1564    5.0265   -2.1362 H   0  0  0  0  0  0  0  0  0  0  0  0
   79.5080    4.5727   -0.0890 H   0  0  0  0  0  0  0  0  0  0  0  0
   77.6263    2.6647   -0.0088 H   0  0  0  0  0  0  0  0  0  0  0  0
   81.1735   -4.9838    2.1183 H   0  0  0  0  0  0  0  0  0  0  0  0
   81.1730   -7.4630    2.2115 H   0  0  0  0  0  0  0  0  0  0  0  0
   82.6861  -10.7461   -0.4533 H   0  0  0  0  0  0  0  0  0  0  0  0
   83.1990   -7.6058   -1.5604 H   0  0  0  0  0  0  0  0  0  0  0  0
   83.1909   -5.1384   -1.6598 H   0  0  0  0  0  0  0  0  0  0  0  0
  2  3  4  0  0  0  0
  3  4  1  0  0  0  0
  4  5  2  0  0  0  0
  5  6  4  0  0  0  0
  1  7  1  0  0  0  0
  3  7  4  0  0  0  0
  6  7  4  0  0  0  0
  6  8  4  0  0  0  0
  8  9  4  0  0  0  0
  9 10  4  0  0  0  0
 10 11  2  0  0  0  0
  1 12  1  0  0  0  0
  9 12  4  0  0  0  0
 11 13  4  0  0  0  0
 12 13  4  0  0  0  0
 13 14  4  0  0  0  0
 14 15  4  0  0  0  0
 15 16  4  0  0  0  0
 16 17  2  0  0  0  0
 17 18  4  0  0  0  0
 18 19  4  0  0  0  0
 19 20  1  0  0  0  0
 20 21  4  0  0  0  0
 21 22  4  0  0  0  0
 22 23  4  0  0  0  0
 23 24  1  0  0  0  0
 24 25  4  0  0  0  0
 24 26  2  0  0  0  0
 23 27  4  0  0  0  0
 20 28  4  0  0  0  0
 27 28  4  0  0  0  0
 19 29  4  0  0  0  0
 29 30  4  0  0  0  0
 30 31  2  0  0  0  0
  2 32  4  0  0  0  0
 31 32  1  0  0  0  0
  1 33  1  0  0  0  0
 29 33  4  0  0  0  0
 32 33  4  0  0  0  0
  1 34  1  0  0  0  0
 15 34  4  0  0  0  0
 18 34  4  0  0  0  0
  8 35  1  0  0  0  0
 35 36  4  0  0  0  0
 36 37  4  0  0  0  0
 37 38  4  0  0  0  0
 38 39  1  0  0  0  0
 39 40  4  0  0  0  0
 39 41  2  0  0  0  0
 38 42  4  0  0  0  0
 35 43  4  0  0  0  0
 42 43  4  0  0  0  0
  2 44  1  0  0  0  0
  4 45  1  0  0  0  0
  5 46  1  0  0  0  0
 10 47  1  0  0  0  0
 11 48  1  0  0  0  0
 16 49  1  0  0  0  0
 17 50  1  0  0  0  0
 21 51  1  0  0  0  0
 22 52  1  0  0  0  0
 25 53  1  0  0  0  0
 27 54  1  0  0  0  0
 28 55  1  0  0  0  0
 30 56  1  0  0  0  0
 31 57  1  0  0  0  0
 36 58  1  0  0  0  0
 37 59  1  0  0  0  0
 40 60  1  0  0  0  0
 42 61  1  0  0  0  0
 43 62  1  0  0  0  0
 64 65  4  0  0  0  0
 65 66  1  0  0  0  0
 66 67  2  0  0  0  0
 67 68  4  0  0  0  0
 63 69  1  0  0  0  0
 65 69  4  0  0  0  0
 68 69  4  0  0  0  0
 68 70  4  0  0  0  0
 70 71  4  0  0  0  0
 71 72  4  0  0  0  0
 72 73  2  0  0  0  0
 63 74  1  0  0  0  0
 71 74  4  0  0  0  0
 73 75  4  0  0  0  0
 74 75  4  0  0  0  0
 75 76  4  0  0  0  0
 76 77  4  0  0  0  0
 77 78  4  0  0  0  0
 78 79  2  0  0  0  0
 79 80  4  0  0  0  0
 80 81  4  0  0  0  0
 81 82  1  0  0  0  0
 82 83  4  0  0  0  0
 83 84  4  0  0  0  0
 84 85  4  0  0  0  0
 85 86  1  0  0  0  0
 86 87  4  0  0  0  0
 86 88  2  0  0  0  0
 85 89  4  0  0  0  0
 82 90  4  0  0  0  0
 89 90  4  0  0  0  0
 81 91  4  0  0  0  0
 91 92  4  0  0  0  0
 92 93  2  0  0  0  0
 64 94  4  0  0  0  0
 93 94  1  0  0  0  0
 63 95  1  0  0  0  0
 91 95  4  0  0  0  0
 94 95  4  0  0  0  0
 63 96  1  0  0  0  0
 77 96  4  0  0  0  0
 80 96  4  0  0  0  0
 70 97  1  0  0  0  0
 97 98  4  0  0  0  0
 98 99  4  0  0  0  0
 99100  4  0  0  0  0
100101  1  0  0  0  0
101102  4  0  0  0  0
101103  2  0  0  0  0
100104  4  0  0  0  0
 97105  4  0  0  0  0
104105  4  0  0  0  0
 64106  1  0  0  0  0
 66107  1  0  0  0  0
 67108  1  0  0  0  0
 72109  1  0  0  0  0
 73110  1  0  0  0  0
 78111  1  0  0  0  0
 79112  1  0  0  0  0
 83113  1  0  0  0  0
 84114  1  0  0  0  0
 87115  1  0  0  0  0
 89116  1  0  0  0  0
 90117  1  0  0  0  0
 92118  1  0  0  0  0
 93119  1  0  0  0  0
 98120  1  0  0  0  0
 99121  1  0  0  0  0
102122  1  0  0  0  0
104123  1  0  0  0  0
105124  1  0  0  0  0
125126  3  0  0  0  0
126127  4  0  0  0  0
 14128  4  0  0  0  0
127128  3  0  0  0  0
125129  4  0  0  0  0
129130  3  0  0  0  0
131132  3  0  0  0  0
132133  4  0  0  0  0
133134  3  0  0  0  0
131135  4  0  0  0  0
135136  3  0  0  0  0
137138  3  0  0  0  0
138139  4  0  0  0  0
139140  3  0  0  0  0
137141  4  0  0  0  0
 76142  4  0  0  0  0
141142  3  0  0  0  0
130144  4  0  0  0  0
144145  4  0  0  0  0
145146  4  0  0  0  0
146147  2  0  0  0  0
147148  4  0  0  0  0
143149  1  0  0  0  0
145149  4  0  0  0  0
148149  4  0  0  0  0
148150  4  0  0  0  0
150151  4  0  0  0  0
151152  4  0  0  0  0
152153  2  0  0  0  0
143154  1  0  0  0  0
151154  4  0  0  0  0
153155  4  0  0  0  0
154155  4  0  0  0  0
134156  4  0  0  0  0
155156  4  0  0  0  0
156157  4  0  0  0  0
157158  4  0  0  0  0
158159  2  0  0  0  0
159160  4  0  0  0  0
160161  4  0  0  0  0
161162  1  0  0  0  0
162163  4  0  0  0  0
163164  4  0  0  0  0
164165  4  0  0  0  0
165166  1  0  0  0  0
166167  4  0  0  0  0
166168  2  0  0  0  0
165169  4  0  0  0  0
162170  4  0  0  0  0
169170  4  0  0  0  0
161171  4  0  0  0  0
171172  4  0  0  0  0
172173  2  0  0  0  0
144174  4  0  0  0  0
173174  4  0  0  0  0
143175  1  0  0  0  0
171175  4  0  0  0  0
174175  4  0  0  0  0
143176  1  0  0  0  0
157176  4  0  0  0  0
160176  4  0  0  0  0
150177  1  0  0  0  0
177178  4  0  0  0  0
178179  4  0  0  0  0
179180  4  0  0  0  0
180181  1  0  0  0  0
181182  4  0  0  0  0
181183  2  0  0  0  0
180184  4  0  0  0  0
177185  4  0  0  0  0
184185  4  0  0  0  0
146186  1  0  0  0  0
147187  1  0  0  0  0
152188  1  0  0  0  0
153189  1  0  0  0  0
158190  1  0  0  0  0
159191  1  0  0  0  0
163192  1  0  0  0  0
164193  1  0  0  0  0
167194  1  0  0  0  0
169195  1  0  0  0  0
170196  1  0  0  0  0
172197  1  0  0  0  0
173198  1  0  0  0  0
178199  1  0  0  0  0
179200  1  0  0  0  0
182201  1  0  0  0  0
184202  1  0  0  0  0
185203  1  0  0  0  0
136205  4  0  0  0  0
205206  4  0  0  0  0
206207  4  0  0  0  0
207208  2  0  0  0  0
208209  4  0  0  0  0
204210  1  0  0  0  0
206210  4  0  0  0  0
209210  4  0  0  0  0
209211  4  0  0  0  0
211212  4  0  0  0  0
212213  4  0  0  0  0
213214  2  0  0  0  0
204215  1  0  0  0  0
212215  4  0  0  0  0
214216  4  0  0  0  0
215216  4  0  0  0  0
140217  4  0  0  0  0
216217  4  0  0  0  0
217218  4  0  0  0  0
218219  4  0  0  0  0
219220  2  0  0  0  0
220221  4  0  0  0  0
221222  4  0  0  0  0
222223  1  0  0  0  0
223224  4  0  0  0  0
224225  4  0  0  0  0
225226  4  0  0  0  0
226227  1  0  0  0  0
227228  4  0  0  0  0
227229  2  0  0  0  0
226230  4  0  0  0  0
223231  4  0  0  0  0
230231  4  0  0  0  0
222232  4  0  0  0  0
232233  4  0  0  0  0
233234  2  0  0  0  0
205235  4  0  0  0  0
234235  4  0  0  0  0
204236  1  0  0  0  0
232236  4  0  0  0  0
235236  4  0  0  0  0
204237  1  0  0  0  0
218237  4  0  0  0  0
221237  4  0  0  0  0
211238  1  0  0  0  0
238239  4  0  0  0  0
239240  4  0  0  0  0
240241  4  0  0  0  0
241242  1  0  0  0  0
242243  4  0  0  0  0
242244  2  0  0  0  0
241245  4  0  0  0  0
238246  4  0  0  0  0
245246  4  0  0  0  0
207247  1  0  0  0  0
208248  1  0  0  0  0
213249  1  0  0  0  0
214250  1  0  0  0  0
219251  1  0  0  0  0
220252  1  0  0  0  0
224253  1  0  0  0  0
225254  1  0  0  0  0
228255  1  0  0  0  0
230256  1  0  0  0  0
231257  1  0  0  0  0
233258  1  0  0  0  0
234259  1  0  0  0  0
239260  1  0  0  0  0
240261  1  0  0  0  0
243262  1  0  0  0  0
245263  1  0  0  0  0
246264  1  0  0  0  0
M  END
