794

C 138.596259 0.089696 -0.014565
C 139.320660 0.001084 1.362538
C 138.700766 -0.031779 2.591528
C 139.721448 -0.149480 3.568920
C 140.932819 -0.183148 2.902912
N 140.676019 -0.069072 1.560027
C 142.364804 -0.361038 3.560397
C 142.418019 -0.632614 5.016334
C 142.616463 0.405609 5.924454
C 142.651292 0.147887 7.302902
C 142.474975 -1.146517 7.830593
N 142.514302 -1.394341 9.215720
C 142.217456 -0.276440 10.107928
C 142.101088 -2.710002 9.693872
C 142.301944 -2.177103 6.885720
C 142.266079 -1.928303 5.505127
C 143.492542 -0.291800 2.801903
C 144.804070 -0.518610 3.373023
C 145.706384 -0.416260 2.404970
N 143.684499 -0.039663 1.467861
C 145.021429 -0.099748 1.166972
C 145.694207 0.079842 -0.001235
C 144.921801 0.471358 -1.333790
C 145.487902 1.028250 -2.465517
C 144.462214 1.176459 -3.430126
C 143.292454 0.720795 -2.857672
N 143.574346 0.331358 -1.568756
C 141.868619 0.676145 -3.559262
C 141.819922 0.824695 -5.030655
C 141.644264 2.079437 -5.611689
C 141.637300 2.221111 -7.006453
C 141.816697 1.124689 -7.872928
N 141.816949 1.290575 -9.272530
C 142.077866 0.120338 -10.105369
C 142.371298 2.549035 -9.771249
C 141.953543 -0.134007 -7.256715
C 141.965877 -0.284016 -5.861734
C 140.746376 0.509168 -2.812336
C 139.417824 0.466132 -3.398092
C 138.534136 0.309619 -2.417191
C 139.262508 0.242255 -1.173996
N 140.587126 0.356340 -1.462656
H 137.514795 0.018350 -0.023229
H 137.636236 0.013397 2.764389
H 139.587815 -0.214256 4.639002
H 141.380778 -0.038167 0.827444
H 142.752162 1.417424 5.549083
H 142.829001 1.001762 7.947199
H 141.235255 0.158423 9.889473
H 142.207404 -0.600640 11.155166
H 142.988034 0.499149 10.044933
H 141.053826 -2.912399 9.443144
H 142.739821 -3.501706 9.287536
H 142.198903 -2.778497 10.783351
H 142.186177 -3.211663 7.188496
H 142.125303 -2.745981 4.801785
H 145.021721 -0.746008 4.401616
H 146.764370 -0.543131 2.543967
H 146.527169 1.289913 -2.593559
H 144.566155 1.568980 -4.430800
H 142.881300 0.028756 -0.888731
H 141.510716 2.947131 -4.969208
H 141.473248 3.221542 -7.391844
H 141.974181 0.372091 -11.167222
H 143.093934 -0.259534 -9.950859
H 141.351604 -0.677129 -9.912975
H 141.726374 3.397857 -9.522858
H 142.442662 2.539017 -10.864625
H 143.379304 2.724889 -9.378697
H 142.071566 -1.042067 -7.836977
H 142.090773 -1.268251 -5.414657
H 139.183007 0.548371 -4.444481
H 137.466617 0.242885 -2.525197
C 313.846818 0.086298 0.014033
C 313.122417 0.322832 -1.345495
C 313.742311 0.578857 -2.547971
C 312.721629 0.693453 -3.525731
C 311.510258 0.504665 -2.886154
N 311.767058 0.300905 -1.553925
C 310.078273 0.485787 -3.567017
C 310.025058 0.562923 -5.046056
C 309.826614 1.785030 -5.685621
C 309.791785 1.857477 -7.086082
C 309.968102 0.722756 -7.902384
N 309.928774 0.806390 -9.307018
C 310.225620 2.102228 -9.912444
C 310.341989 -0.360604 -10.080141
C 310.141133 -0.500539 -7.225300
C 310.176998 -0.582162 -5.824844
C 308.950534 0.375369 -2.813416
C 307.639007 0.288697 -3.421782
C 306.736693 0.161367 -2.456697
N 308.758578 0.307898 -1.457433
C 307.421648 0.178983 -1.179000
C 306.748869 0.079842 -0.001235
C 307.521275 0.148218 1.385961
C 306.955175 0.424423 2.616671
C 307.980862 0.342481 3.589152
C 309.150623 0.033639 2.925866
N 308.868731 -0.042941 1.581581
C 310.574457 -0.174162 3.597461
C 310.623155 -0.374521 5.062699
C 310.798813 0.709144 5.921565
C 310.805777 0.520056 7.310696
C 310.626380 -0.748871 7.896138
N 310.626128 -0.915555 9.295645
C 310.365210 -2.248360 9.831092
C 310.071779 0.191012 10.075358
C 310.489534 -1.828136 7.002146
C 310.477200 -1.647102 5.610851
C 311.696701 -0.161474 2.832205
C 313.025253 -0.340564 3.391569
C 313.908941 -0.262877 2.401302
C 313.180569 -0.037065 1.176933
N 311.855951 0.006207 1.484289
H 314.928282 0.014908 0.005738
H 314.806841 0.663280 -2.705434
H 312.855262 0.881219 -4.581201
H 311.062298 0.159292 -0.834495
H 309.690915 2.680720 -5.083615
H 309.614076 2.838549 -7.512365
H 311.207822 2.473797 -9.598175
H 310.235672 2.032440 -11.006493
H 309.455043 2.841464 -9.669469
H 311.389251 -0.616117 -9.883817
H 309.703256 -1.225479 -9.870626
H 310.244174 -0.171909 -11.155338
H 310.256900 -1.435351 -7.762062
H 310.317774 -1.541882 -5.332679
H 307.421356 0.308647 -4.475022
H 305.678707 0.070597 -2.621552
H 305.915907 0.648799 2.802460
H 307.876922 0.489600 4.653942
H 309.561776 -0.177777 0.849583
H 310.932361 1.703225 5.500286
H 310.969829 1.402331 7.919775
H 310.468895 -2.252427 10.922373
H 309.349143 -2.581453 9.591872
H 311.091473 -2.978545 9.457193
H 310.716703 1.074405 10.032776
H 310.000414 -0.074924 11.135948
H 309.063773 0.453952 9.734940
H 310.371511 -2.846882 7.353480
H 310.352304 -2.499178 4.945597
H 313.260070 -0.505802 4.428096
H 314.976460 -0.353061 2.490664
C 148.103995 0.095043 0.009398
C 149.562221 0.073206 -0.008475
C 150.696150 0.052453 -0.009966
C 152.057531 0.039863 -0.012157
C 153.331750 0.050169 -0.016922
C 154.520213 0.068967 -0.023078
C 155.872573 0.093752 -0.007210
C 156.972841 0.095043 0.009398
C 166.508731 0.095043 0.009398
C 167.966958 0.073206 -0.008475
C 169.100886 0.052453 -0.009966
C 170.462267 0.039863 -0.012157
C 171.736486 0.050169 -0.016922
C 172.924949 0.068967 -0.023078
C 174.277309 0.093752 -0.007210
C 175.377577 0.095043 0.009398
C 184.913468 0.095043 0.009398
C 186.371694 0.073206 -0.008475
C 187.505622 0.052453 -0.009966
C 188.867004 0.039863 -0.012157
C 190.141223 0.050169 -0.016922
C 191.329685 0.068967 -0.023078
C 192.682046 0.093752 -0.007210
C 193.782313 0.095043 0.009398
C 203.318204 0.095043 0.009398
C 204.776430 0.073206 -0.008475
C 205.910358 0.052453 -0.009966
C 207.271740 0.039863 -0.012157
C 208.545959 0.050169 -0.016922
C 209.734421 0.068967 -0.023078
C 211.086782 0.093752 -0.007210
C 212.187049 0.095043 0.009398
C 221.722940 0.095043 0.009398
C 223.181166 0.073206 -0.008475
C 224.315094 0.052453 -0.009966
C 225.676476 0.039863 -0.012157
C 226.950695 0.050169 -0.016922
C 228.139157 0.068967 -0.023078
C 229.491518 0.093752 -0.007210
C 230.591785 0.095043 0.009398
C 240.127676 0.095043 0.009398
C 241.585902 0.073206 -0.008475
C 242.719831 0.052453 -0.009966
C 244.081212 0.039863 -0.012157
C 245.355431 0.050169 -0.016922
C 246.543894 0.068967 -0.023078
C 247.896254 0.093752 -0.007210
C 248.996522 0.095043 0.009398
C 258.532412 0.095043 0.009398
C 259.990639 0.073206 -0.008475
C 261.124567 0.052453 -0.009966
C 262.485949 0.039863 -0.012157
C 263.760167 0.050169 -0.016922
C 264.948630 0.068967 -0.023078
C 266.300990 0.093752 -0.007210
C 267.401258 0.095043 0.009398
C 276.937149 0.095043 0.009398
C 278.395375 0.073206 -0.008475
C 279.529303 0.052453 -0.009966
C 280.890685 0.039863 -0.012157
C 282.164904 0.050169 -0.016922
C 283.353366 0.068967 -0.023078
C 284.705727 0.093752 -0.007210
C 285.805994 0.095043 0.009398
C 295.341885 0.095043 0.009398
C 296.800111 0.073206 -0.008475
C 297.934039 0.052453 -0.009966
C 299.295421 0.039863 -0.012157
C 300.569640 0.050169 -0.016922
C 301.758102 0.068967 -0.023078
C 303.110463 0.093752 -0.007210
C 304.210730 0.095043 0.009398
C 158.231188 -0.032118 -0.000862
C 159.024975 -0.382089 1.325498
C 158.517223 -0.997160 2.452203
C 159.554440 -1.033135 3.419037
C 160.665094 -0.445815 2.850170
N 160.354339 -0.122995 1.552910
C 162.055234 -0.178736 3.561743
C 162.044720 0.002434 5.031408
C 161.594770 1.196241 5.591973
C 161.556656 1.360328 6.984752
C 161.946589 0.336597 7.867697
N 161.908538 0.480905 9.270035
C 161.433276 1.748080 9.816216
C 161.491831 -0.709570 10.011663
C 162.422242 -0.848195 7.273263
C 162.464925 -1.019208 5.882219
C 163.189853 -0.076989 2.820593
C 164.476463 0.223474 3.413840
C 165.384379 0.266477 2.444757
N 163.397971 -0.197565 1.474372
C 164.722237 -0.005593 1.184630
C 165.385827 -0.032118 -0.000862
C 164.592028 -0.331226 -1.339625
C 165.099434 -0.905070 -2.488270
C 164.062522 -0.903902 -3.456094
C 162.952354 -0.336734 -2.865706
N 163.262997 -0.063334 -1.557142
C 161.562587 -0.041796 -3.566948
C 161.573560 0.191914 -5.029163
C 162.032925 1.400263 -5.548125
C 162.070358 1.611838 -6.934820
C 161.670151 0.624665 -7.855563
N 161.707234 0.829526 -9.248813
C 161.885676 -0.357930 -10.082306
C 162.334188 2.048373 -9.751343
C 161.186352 -0.575874 -7.299880
C 161.145216 -0.795567 -5.915126
C 160.427848 0.032506 -2.822308
C 159.141040 0.355281 -3.403389
C 158.233020 0.360879 -2.433229
C 158.895196 0.040789 -1.184501
N 160.219881 -0.138836 -1.481424
H 157.507906 -1.358902 2.576091
H 159.493252 -1.422827 4.424116
H 161.015737 0.217440 0.860715
H 161.271447 2.001526 4.935755
H 161.193032 2.315749 7.346003
H 161.552454 1.763811 10.906128
H 162.020977 2.591689 9.436371
H 160.371506 1.906550 9.594608
H 162.238904 -1.507107 9.950733
H 160.526309 -1.084829 9.652481
H 161.382480 -0.484394 11.079332
H 162.794674 -1.667413 7.878738
H 162.834865 -1.948011 5.452995
H 164.670568 0.394878 4.457842
H 166.428520 0.473617 2.591018
H 166.108512 -1.263326 -2.624860
H 164.123207 -1.255821 -4.475112
H 162.602452 0.252998 -0.852248
H 162.363174 2.180094 -4.865014
H 162.438028 2.578159 -7.261369
H 162.778948 -0.921306 -9.788902
H 161.007348 -1.010827 -10.041948
H 162.004945 -0.083425 -11.137113
H 163.401247 2.079116 -9.503856
H 162.245530 2.108922 -10.842241
H 161.837138 2.943383 -9.360627
H 160.813043 -1.376923 -7.927996
H 160.771234 -1.737092 -5.518573
H 158.946374 0.566289 -4.439835
H 157.188650 0.573390 -2.571149
C 176.635924 -0.032118 -0.000862
C 177.429711 -0.382089 1.325498
C 176.921959 -0.997160 2.452203
C 177.959176 -1.033135 3.419037
C 179.069830 -0.445815 2.850170
N 178.759075 -0.122995 1.552910
C 180.459970 -0.178736 3.561743
C 180.449456 0.002434 5.031408
C 179.999506 1.196241 5.591973
C 179.961392 1.360328 6.984752
C 180.351325 0.336597 7.867697
N 180.313274 0.480905 9.270035
C 179.838012 1.748080 9.816216
C 179.896567 -0.709570 10.011663
C 180.826978 -0.848195 7.273263
C 180.869661 -1.019208 5.882219
C 181.594590 -0.076989 2.820593
C 182.881199 0.223474 3.413840
C 183.789115 0.266477 2.444757
N 181.802707 -0.197565 1.474372
C 183.126973 -0.005593 1.184630
C 183.790563 -0.032118 -0.000862
C 182.996764 -0.331226 -1.339625
C 183.504170 -0.905070 -2.488270
C 182.467258 -0.903902 -3.456094
C 181.357090 -0.336734 -2.865706
N 181.667733 -0.063334 -1.557142
C 179.967323 -0.041796 -3.566948
C 179.978296 0.191914 -5.029163
C 180.437661 1.400263 -5.548125
C 180.475094 1.611838 -6.934820
C 180.074888 0.624665 -7.855563
N 180.111971 0.829526 -9.248813
C 180.290412 -0.357930 -10.082306
C 180.738925 2.048373 -9.751343
C 179.591089 -0.575874 -7.299880
C 179.549952 -0.795567 -5.915126
C 178.832584 0.032506 -2.822308
C 177.545776 0.355281 -3.403389
C 176.637756 0.360879 -2.433229
C 177.299932 0.040789 -1.184501
N 178.624618 -0.138836 -1.481424
H 175.912642 -1.358902 2.576091
H 177.897989 -1.422827 4.424116
H 179.420473 0.217440 0.860715
H 179.676183 2.001526 4.935755
H 179.597768 2.315749 7.346003
H 179.957190 1.763811 10.906128
H 180.425713 2.591689 9.436371
H 178.776242 1.906550 9.594608
H 180.643641 -1.507107 9.950733
H 178.931045 -1.084829 9.652481
H 179.787216 -0.484394 11.079332
H 181.199410 -1.667413 7.878738
H 181.239601 -1.948011 5.452995
H 183.075304 0.394878 4.457842
H 184.833256 0.473617 2.591018
H 184.513248 -1.263326 -2.624860
H 182.527943 -1.255821 -4.475112
H 181.007188 0.252998 -0.852248
H 180.767910 2.180094 -4.865014
H 180.842764 2.578159 -7.261369
H 181.183684 -0.921306 -9.788902
H 179.412084 -1.010827 -10.041948
H 180.409681 -0.083425 -11.137113
H 181.805983 2.079116 -9.503856
H 180.650266 2.108922 -10.842241
H 180.241874 2.943383 -9.360627
H 179.217779 -1.376923 -7.927996
H 179.175970 -1.737092 -5.518573
H 177.351110 0.566289 -4.439835
H 175.593387 0.573390 -2.571149
C 195.040661 -0.032118 -0.000862
C 195.834447 -0.382089 1.325498
C 195.326695 -0.997160 2.452203
C 196.363912 -1.033135 3.419037
C 197.474566 -0.445815 2.850170
N 197.163812 -0.122995 1.552910
C 198.864706 -0.178736 3.561743
C 198.854192 0.002434 5.031408
C 198.404242 1.196241 5.591973
C 198.366128 1.360328 6.984752
C 198.756061 0.336597 7.867697
N 198.718010 0.480905 9.270035
C 198.242748 1.748080 9.816216
C 198.301304 -0.709570 10.011663
C 199.231715 -0.848195 7.273263
C 199.274397 -1.019208 5.882219
C 199.999326 -0.076989 2.820593
C 201.285936 0.223474 3.413840
C 202.193851 0.266477 2.444757
N 200.207443 -0.197565 1.474372
C 201.531709 -0.005593 1.184630
C 202.195299 -0.032118 -0.000862
C 201.401501 -0.331226 -1.339625
C 201.908907 -0.905070 -2.488270
C 200.871994 -0.903902 -3.456094
C 199.761826 -0.336734 -2.865706
N 200.072469 -0.063334 -1.557142
C 198.372059 -0.041796 -3.566948
C 198.383032 0.191914 -5.029163
C 198.842398 1.400263 -5.548125
C 198.879830 1.611838 -6.934820
C 198.479624 0.624665 -7.855563
N 198.516707 0.829526 -9.248813
C 198.695148 -0.357930 -10.082306
C 199.143661 2.048373 -9.751343
C 197.995825 -0.575874 -7.299880
C 197.954688 -0.795567 -5.915126
C 197.237321 0.032506 -2.822308
C 195.950513 0.355281 -3.403389
C 195.042492 0.360879 -2.433229
C 195.704668 0.040789 -1.184501
N 197.029354 -0.138836 -1.481424
H 194.317378 -1.358902 2.576091
H 196.302725 -1.422827 4.424116
H 197.825209 0.217440 0.860715
H 198.080919 2.001526 4.935755
H 198.002505 2.315749 7.346003
H 198.361927 1.763811 10.906128
H 198.830449 2.591689 9.436371
H 197.180979 1.906550 9.594608
H 199.048377 -1.507107 9.950733
H 197.335781 -1.084829 9.652481
H 198.191952 -0.484394 11.079332
H 199.604147 -1.667413 7.878738
H 199.644338 -1.948011 5.452995
H 201.480040 0.394878 4.457842
H 203.237993 0.473617 2.591018
H 202.917984 -1.263326 -2.624860
H 200.932679 -1.255821 -4.475112
H 199.411924 0.252998 -0.852248
H 199.172646 2.180094 -4.865014
H 199.247500 2.578159 -7.261369
H 199.588421 -0.921306 -9.788902
H 197.816821 -1.010827 -10.041948
H 198.814417 -0.083425 -11.137113
H 200.210719 2.079116 -9.503856
H 199.055002 2.108922 -10.842241
H 198.646610 2.943383 -9.360627
H 197.622515 -1.376923 -7.927996
H 197.580706 -1.737092 -5.518573
H 195.755846 0.566289 -4.439835
H 193.998123 0.573390 -2.571149
C 213.445397 -0.032118 -0.000862
C 214.239183 -0.382089 1.325498
C 213.731431 -0.997160 2.452203
C 214.768648 -1.033135 3.419037
C 215.879302 -0.445815 2.850170
N 215.568548 -0.122995 1.552910
C 217.269443 -0.178736 3.561743
C 217.258928 0.002434 5.031408
C 216.808978 1.196241 5.591973
C 216.770864 1.360328 6.984752
C 217.160798 0.336597 7.867697
N 217.122746 0.480905 9.270035
C 216.647484 1.748080 9.816216
C 216.706040 -0.709570 10.011663
C 217.636451 -0.848195 7.273263
C 217.679133 -1.019208 5.882219
C 218.404062 -0.076989 2.820593
C 219.690672 0.223474 3.413840
C 220.598587 0.266477 2.444757
N 218.612179 -0.197565 1.474372
C 219.936445 -0.005593 1.184630
C 220.600035 -0.032118 -0.000862
C 219.806237 -0.331226 -1.339625
C 220.313643 -0.905070 -2.488270
C 219.276731 -0.903902 -3.456094
C 218.166562 -0.336734 -2.865706
N 218.477206 -0.063334 -1.557142
C 216.776795 -0.041796 -3.566948
C 216.787768 0.191914 -5.029163
C 217.247134 1.400263 -5.548125
C 217.284567 1.611838 -6.934820
C 216.884360 0.624665 -7.855563
N 216.921443 0.829526 -9.248813
C 217.099884 -0.357930 -10.082306
C 217.548397 2.048373 -9.751343
C 216.400561 -0.575874 -7.299880
C 216.359424 -0.795567 -5.915126
C 215.642057 0.032506 -2.822308
C 214.355249 0.355281 -3.403389
C 213.447228 0.360879 -2.433229
C 214.109404 0.040789 -1.184501
N 215.434090 -0.138836 -1.481424
H 212.722114 -1.358902 2.576091
H 214.707461 -1.422827 4.424116
H 216.229945 0.217440 0.860715
H 216.485655 2.001526 4.935755
H 216.407241 2.315749 7.346003
H 216.766663 1.763811 10.906128
H 217.235185 2.591689 9.436371
H 215.585715 1.906550 9.594608
H 217.453113 -1.507107 9.950733
H 215.740518 -1.084829 9.652481
H 216.596688 -0.484394 11.079332
H 218.008883 -1.667413 7.878738
H 218.049074 -1.948011 5.452995
H 219.884777 0.394878 4.457842
H 221.642729 0.473617 2.591018
H 221.322720 -1.263326 -2.624860
H 219.337415 -1.255821 -4.475112
H 217.816660 0.252998 -0.852248
H 217.577382 2.180094 -4.865014
H 217.652236 2.578159 -7.261369
H 217.993157 -0.921306 -9.788902
H 216.221557 -1.010827 -10.041948
H 217.219153 -0.083425 -11.137113
H 218.615455 2.079116 -9.503856
H 217.459739 2.108922 -10.842241
H 217.051347 2.943383 -9.360627
H 216.027251 -1.376923 -7.927996
H 215.985442 -1.737092 -5.518573
H 214.160583 0.566289 -4.439835
H 212.402859 0.573390 -2.571149
C 231.850133 -0.032118 -0.000862
C 232.643919 -0.382089 1.325498
C 232.136168 -0.997160 2.452203
C 233.173384 -1.033135 3.419037
C 234.284038 -0.445815 2.850170
N 233.973284 -0.122995 1.552910
C 235.674179 -0.178736 3.561743
C 235.663665 0.002434 5.031408
C 235.213714 1.196241 5.591973
C 235.175601 1.360328 6.984752
C 235.565534 0.336597 7.867697
N 235.527483 0.480905 9.270035
C 235.052221 1.748080 9.816216
C 235.110776 -0.709570 10.011663
C 236.041187 -0.848195 7.273263
C 236.083870 -1.019208 5.882219
C 236.808798 -0.076989 2.820593
C 238.095408 0.223474 3.413840
C 239.003323 0.266477 2.444757
N 237.016915 -0.197565 1.474372
C 238.341181 -0.005593 1.184630
C 239.004771 -0.032118 -0.000862
C 238.210973 -0.331226 -1.339625
C 238.718379 -0.905070 -2.488270
C 237.681467 -0.903902 -3.456094
C 236.571298 -0.336734 -2.865706
N 236.881942 -0.063334 -1.557142
C 235.181531 -0.041796 -3.566948
C 235.192504 0.191914 -5.029163
C 235.651870 1.400263 -5.548125
C 235.689303 1.611838 -6.934820
C 235.289096 0.624665 -7.855563
N 235.326179 0.829526 -9.248813
C 235.504621 -0.357930 -10.082306
C 235.953133 2.048373 -9.751343
C 234.805297 -0.575874 -7.299880
C 234.764160 -0.795567 -5.915126
C 234.046793 0.032506 -2.822308
C 232.759985 0.355281 -3.403389
C 231.851965 0.360879 -2.433229
C 232.514140 0.040789 -1.184501
N 233.838826 -0.138836 -1.481424
H 231.126850 -1.358902 2.576091
H 233.112197 -1.422827 4.424116
H 234.634681 0.217440 0.860715
H 234.890391 2.001526 4.935755
H 234.811977 2.315749 7.346003
H 235.171399 1.763811 10.906128
H 235.639922 2.591689 9.436371
H 233.990451 1.906550 9.594608
H 235.857849 -1.507107 9.950733
H 234.145254 -1.084829 9.652481
H 235.001424 -0.484394 11.079332
H 236.413619 -1.667413 7.878738
H 236.453810 -1.948011 5.452995
H 238.289513 0.394878 4.457842
H 240.047465 0.473617 2.591018
H 239.727456 -1.263326 -2.624860
H 237.742151 -1.255821 -4.475112
H 236.221397 0.252998 -0.852248
H 235.982118 2.180094 -4.865014
H 236.056972 2.578159 -7.261369
H 236.397893 -0.921306 -9.788902
H 234.626293 -1.010827 -10.041948
H 235.623889 -0.083425 -11.137113
H 237.020191 2.079116 -9.503856
H 235.864475 2.108922 -10.842241
H 235.456083 2.943383 -9.360627
H 234.431987 -1.376923 -7.927996
H 234.390178 -1.737092 -5.518573
H 232.565319 0.566289 -4.439835
H 230.807595 0.573390 -2.571149
C 250.254869 -0.032118 -0.000862
C 251.048656 -0.382089 1.325498
C 250.540904 -0.997160 2.452203
C 251.578121 -1.033135 3.419037
C 252.688775 -0.445815 2.850170
N 252.378020 -0.122995 1.552910
C 254.078915 -0.178736 3.561743
C 254.068401 0.002434 5.031408
C 253.618451 1.196241 5.591973
C 253.580337 1.360328 6.984752
C 253.970270 0.336597 7.867697
N 253.932219 0.480905 9.270035
C 253.456957 1.748080 9.816216
C 253.515512 -0.709570 10.011663
C 254.445923 -0.848195 7.273263
C 254.488606 -1.019208 5.882219
C 255.213534 -0.076989 2.820593
C 256.500144 0.223474 3.413840
C 257.408060 0.266477 2.444757
N 255.421652 -0.197565 1.474372
C 256.745918 -0.005593 1.184630
C 257.409508 -0.032118 -0.000862
C 256.615709 -0.331226 -1.339625
C 257.123115 -0.905070 -2.488270
C 256.086203 -0.903902 -3.456094
C 254.976035 -0.336734 -2.865706
N 255.286678 -0.063334 -1.557142
C 253.586268 -0.041796 -3.566948
C 253.597241 0.191914 -5.029163
C 254.056606 1.400263 -5.548125
C 254.094039 1.611838 -6.934820
C 253.693832 0.624665 -7.855563
N 253.730915 0.829526 -9.248813
C 253.909357 -0.357930 -10.082306
C 254.357869 2.048373 -9.751343
C 253.210033 -0.575874 -7.299880
C 253.168897 -0.795567 -5.915126
C 252.451529 0.032506 -2.822308
C 251.164721 0.355281 -3.403389
C 250.256701 0.360879 -2.433229
C 250.918877 0.040789 -1.184501
N 252.243562 -0.138836 -1.481424
H 249.531587 -1.358902 2.576091
H 251.516933 -1.422827 4.424116
H 253.039418 0.217440 0.860715
H 253.295128 2.001526 4.935755
H 253.216713 2.315749 7.346003
H 253.576135 1.763811 10.906128
H 254.044658 2.591689 9.436371
H 252.395187 1.906550 9.594608
H 254.262585 -1.507107 9.950733
H 252.549990 -1.084829 9.652481
H 253.406161 -0.484394 11.079332
H 254.818355 -1.667413 7.878738
H 254.858546 -1.948011 5.452995
H 256.694249 0.394878 4.457842
H 258.452201 0.473617 2.591018
H 258.132193 -1.263326 -2.624860
H 256.146888 -1.255821 -4.475112
H 254.626133 0.252998 -0.852248
H 254.386855 2.180094 -4.865014
H 254.461709 2.578159 -7.261369
H 254.802629 -0.921306 -9.788902
H 253.031029 -1.010827 -10.041948
H 254.028626 -0.083425 -11.137113
H 255.424928 2.079116 -9.503856
H 254.269211 2.108922 -10.842241
H 253.860819 2.943383 -9.360627
H 252.836724 -1.376923 -7.927996
H 252.794915 -1.737092 -5.518573
H 250.970055 0.566289 -4.439835
H 249.212332 0.573390 -2.571149
C 268.659605 -0.032118 -0.000862
C 269.453392 -0.382089 1.325498
C 268.945640 -0.997160 2.452203
C 269.982857 -1.033135 3.419037
C 271.093511 -0.445815 2.850170
N 270.782756 -0.122995 1.552910
C 272.483651 -0.178736 3.561743
C 272.473137 0.002434 5.031408
C 272.023187 1.196241 5.591973
C 271.985073 1.360328 6.984752
C 272.375006 0.336597 7.867697
N 272.336955 0.480905 9.270035
C 271.861693 1.748080 9.816216
C 271.920248 -0.709570 10.011663
C 272.850659 -0.848195 7.273263
C 272.893342 -1.019208 5.882219
C 273.618271 -0.076989 2.820593
C 274.904880 0.223474 3.413840
C 275.812796 0.266477 2.444757
N 273.826388 -0.197565 1.474372
C 275.150654 -0.005593 1.184630
C 275.814244 -0.032118 -0.000862
C 275.020445 -0.331226 -1.339625
C 275.527851 -0.905070 -2.488270
C 274.490939 -0.903902 -3.456094
C 273.380771 -0.336734 -2.865706
N 273.691414 -0.063334 -1.557142
C 271.991004 -0.041796 -3.566948
C 272.001977 0.191914 -5.029163
C 272.461343 1.400263 -5.548125
C 272.498775 1.611838 -6.934820
C 272.098569 0.624665 -7.855563
N 272.135652 0.829526 -9.248813
C 272.314093 -0.357930 -10.082306
C 272.762606 2.048373 -9.751343
C 271.614770 -0.575874 -7.299880
C 271.573633 -0.795567 -5.915126
C 270.856265 0.032506 -2.822308
C 269.569457 0.355281 -3.403389
C 268.661437 0.360879 -2.433229
C 269.323613 0.040789 -1.184501
N 270.648299 -0.138836 -1.481424
H 267.936323 -1.358902 2.576091
H 269.921670 -1.422827 4.424116
H 271.444154 0.217440 0.860715
H 271.699864 2.001526 4.935755
H 271.621449 2.315749 7.346003
H 271.980871 1.763811 10.906128
H 272.449394 2.591689 9.436371
H 270.799923 1.906550 9.594608
H 272.667322 -1.507107 9.950733
H 270.954726 -1.084829 9.652481
H 271.810897 -0.484394 11.079332
H 273.223091 -1.667413 7.878738
H 273.263282 -1.948011 5.452995
H 275.098985 0.394878 4.457842
H 276.856937 0.473617 2.591018
H 276.536929 -1.263326 -2.624860
H 274.551624 -1.255821 -4.475112
H 273.030869 0.252998 -0.852248
H 272.791591 2.180094 -4.865014
H 272.866445 2.578159 -7.261369
H 273.207365 -0.921306 -9.788902
H 271.435765 -1.010827 -10.041948
H 272.433362 -0.083425 -11.137113
H 273.829664 2.079116 -9.503856
H 272.673947 2.108922 -10.842241
H 272.265555 2.943383 -9.360627
H 271.241460 -1.376923 -7.927996
H 271.199651 -1.737092 -5.518573
H 269.374791 0.566289 -4.439835
H 267.617068 0.573390 -2.571149
C 287.064342 -0.032118 -0.000862
C 287.858128 -0.382089 1.325498
C 287.350376 -0.997160 2.452203
C 288.387593 -1.033135 3.419037
C 289.498247 -0.445815 2.850170
N 289.187493 -0.122995 1.552910
C 290.888387 -0.178736 3.561743
C 290.877873 0.002434 5.031408
C 290.427923 1.196241 5.591973
C 290.389809 1.360328 6.984752
C 290.779742 0.336597 7.867697
N 290.741691 0.480905 9.270035
C 290.266429 1.748080 9.816216
C 290.324985 -0.709570 10.011663
C 291.255396 -0.848195 7.273263
C 291.298078 -1.019208 5.882219
C 292.023007 -0.076989 2.820593
C 293.309617 0.223474 3.413840
C 294.217532 0.266477 2.444757
N 292.231124 -0.197565 1.474372
C 293.555390 -0.005593 1.184630
C 294.218980 -0.032118 -0.000862
C 293.425182 -0.331226 -1.339625
C 293.932588 -0.905070 -2.488270
C 292.895675 -0.903902 -3.456094
C 291.785507 -0.336734 -2.865706
N 292.096150 -0.063334 -1.557142
C 290.395740 -0.041796 -3.566948
C 290.406713 0.191914 -5.029163
C 290.866079 1.400263 -5.548125
C 290.903511 1.611838 -6.934820
C 290.503305 0.624665 -7.855563
N 290.540388 0.829526 -9.248813
C 290.718829 -0.357930 -10.082306
C 291.167342 2.048373 -9.751343
C 290.019506 -0.575874 -7.299880
C 289.978369 -0.795567 -5.915126
C 289.261002 0.032506 -2.822308
C 287.974194 0.355281 -3.403389
C 287.066173 0.360879 -2.433229
C 287.728349 0.040789 -1.184501
N 289.053035 -0.138836 -1.481424
H 286.341059 -1.358902 2.576091
H 288.326406 -1.422827 4.424116
H 289.848890 0.217440 0.860715
H 290.104600 2.001526 4.935755
H 290.026186 2.315749 7.346003
H 290.385608 1.763811 10.906128
H 290.854130 2.591689 9.436371
H 289.204660 1.906550 9.594608
H 291.072058 -1.507107 9.950733
H 289.359462 -1.084829 9.652481
H 290.215633 -0.484394 11.079332
H 291.627828 -1.667413 7.878738
H 291.668019 -1.948011 5.452995
H 293.503721 0.394878 4.457842
H 295.261674 0.473617 2.591018
H 294.941665 -1.263326 -2.624860
H 292.956360 -1.255821 -4.475112
H 291.435605 0.252998 -0.852248
H 291.196327 2.180094 -4.865014
H 291.271181 2.578159 -7.261369
H 291.612102 -0.921306 -9.788902
H 289.840502 -1.010827 -10.041948
H 290.838098 -0.083425 -11.137113
H 292.234400 2.079116 -9.503856
H 291.078683 2.108922 -10.842241
H 290.670291 2.943383 -9.360627
H 289.646196 -1.376923 -7.927996
H 289.604387 -1.737092 -5.518573
H 287.779528 0.566289 -4.439835
H 286.021804 0.573390 -2.571149
