 xtb: 6.5.1 (b24c23e)
          07302205263D

132151  0     0  0            999 V2000
   13.1950   -0.0199    0.0167 Ni  0  0  0  0  0  0  0  0  0  0  0  0
    9.8038   -0.0083    0.1818 C   0  0  0  0  0  0  0  0  0  0  0  0
   10.4574    1.2055    0.2155 C   0  0  0  0  0  0  0  0  0  0  0  0
    9.7810    2.4647    0.2887 C   0  0  0  0  0  0  0  0  0  0  0  0
   10.7397    3.4159    0.3716 C   0  0  0  0  0  0  0  0  0  0  0  0
   12.0016    2.7348    0.3616 C   0  0  0  0  0  0  0  0  0  0  0  0
   11.8186    1.3806    0.2344 N   0  0  0  0  0  0  0  0  0  0  0  0
   13.2262    3.3741    0.4987 C   0  0  0  0  0  0  0  0  0  0  0  0
   13.2425    4.8430    0.7067 C   0  0  0  0  0  0  0  0  0  0  0  0
   12.6696    5.4010    1.8455 C   0  0  0  0  0  0  0  0  0  0  0  0
   12.6906    6.7812    2.0429 C   0  0  0  0  0  0  0  0  0  0  0  0
   12.0695    7.3160    3.2809 C   0  0  0  0  0  0  0  0  0  0  0  0
   12.1586    8.6493    3.3922 O   0  0  0  0  0  0  0  0  0  0  0  0
   11.5323    6.6385    4.1192 O   0  0  0  0  0  0  0  0  0  0  0  0
   13.2828    7.6142    1.0938 C   0  0  0  0  0  0  0  0  0  0  0  0
   13.8509    7.0604   -0.0427 C   0  0  0  0  0  0  0  0  0  0  0  0
   13.8351    5.6862   -0.2358 C   0  0  0  0  0  0  0  0  0  0  0  0
   14.4374    2.6973    0.4575 C   0  0  0  0  0  0  0  0  0  0  0  0
   15.7064    3.3290    0.6570 C   0  0  0  0  0  0  0  0  0  0  0  0
   16.6500    2.3720    0.4881 C   0  0  0  0  0  0  0  0  0  0  0  0
   14.6017    1.3550    0.2006 N   0  0  0  0  0  0  0  0  0  0  0  0
   15.9554    1.1596    0.1924 C   0  0  0  0  0  0  0  0  0  0  0  0
   16.6083   -0.0360   -0.1201 C   0  0  0  0  0  0  0  0  0  0  0  0
   15.9215   -1.2234   -0.3871 C   0  0  0  0  0  0  0  0  0  0  0  0
   16.5786   -2.4394   -0.7463 C   0  0  0  0  0  0  0  0  0  0  0  0
   15.6148   -3.3854   -0.8513 C   0  0  0  0  0  0  0  0  0  0  0  0
   14.3719   -2.7446   -0.5447 C   0  0  0  0  0  0  0  0  0  0  0  0
   14.5693   -1.4059   -0.2913 N   0  0  0  0  0  0  0  0  0  0  0  0
   13.1560   -3.4115   -0.4843 C   0  0  0  0  0  0  0  0  0  0  0  0
   13.1405   -4.8798   -0.6973 C   0  0  0  0  0  0  0  0  0  0  0  0
   13.8128   -5.7288    0.1842 C   0  0  0  0  0  0  0  0  0  0  0  0
   13.7975   -7.1032   -0.0087 C   0  0  0  0  0  0  0  0  0  0  0  0
   13.1154   -7.6458   -1.0848 C   0  0  0  0  0  0  0  0  0  0  0  0
   12.4414   -6.8071   -1.9738 C   0  0  0  0  0  0  0  0  0  0  0  0
   11.7242   -7.4275   -3.1160 C   0  0  0  0  0  0  0  0  0  0  0  0
   11.1019   -6.5400   -3.9054 O   0  0  0  0  0  0  0  0  0  0  0  0
   11.6896   -8.6116   -3.3337 O   0  0  0  0  0  0  0  0  0  0  0  0
   12.4530   -5.4275   -1.7779 C   0  0  0  0  0  0  0  0  0  0  0  0
   11.9543   -2.7643   -0.2292 C   0  0  0  0  0  0  0  0  0  0  0  0
   10.6928   -3.4370   -0.1188 C   0  0  0  0  0  0  0  0  0  0  0  0
    9.7539   -2.4803    0.0670 C   0  0  0  0  0  0  0  0  0  0  0  0
   10.4430   -1.2261    0.0798 C   0  0  0  0  0  0  0  0  0  0  0  0
   11.7941   -1.4099   -0.0766 N   0  0  0  0  0  0  0  0  0  0  0  0
    8.7215   -0.0049    0.2371 H   0  0  0  0  0  0  0  0  0  0  0  0
    8.7094    2.5840    0.2756 H   0  0  0  0  0  0  0  0  0  0  0  0
   10.6178    4.4850    0.4328 H   0  0  0  0  0  0  0  0  0  0  0  0
   12.2144    4.7673    2.5988 H   0  0  0  0  0  0  0  0  0  0  0  0
   11.7340    8.9183    4.2230 H   0  0  0  0  0  0  0  0  0  0  0  0
   13.2958    8.6864    1.2476 H   0  0  0  0  0  0  0  0  0  0  0  0
   14.3101    7.7025   -0.7859 H   0  0  0  0  0  0  0  0  0  0  0  0
   14.2738    5.2595   -1.1309 H   0  0  0  0  0  0  0  0  0  0  0  0
   15.8465    4.3691    0.9020 H   0  0  0  0  0  0  0  0  0  0  0  0
   17.7220    2.4636    0.5541 H   0  0  0  0  0  0  0  0  0  0  0  0
   17.6414   -2.5395   -0.8966 H   0  0  0  0  0  0  0  0  0  0  0  0
   15.7246   -4.4240   -1.1173 H   0  0  0  0  0  0  0  0  0  0  0  0
   14.3385   -5.3059    1.0331 H   0  0  0  0  0  0  0  0  0  0  0  0
   14.3199   -7.7506    0.6864 H   0  0  0  0  0  0  0  0  0  0  0  0
   13.0943   -8.7169   -1.2510 H   0  0  0  0  0  0  0  0  0  0  0  0
   10.6617   -7.0223   -4.6240 H   0  0  0  0  0  0  0  0  0  0  0  0
   11.9384   -4.7773   -2.4755 H   0  0  0  0  0  0  0  0  0  0  0  0
   10.5574   -4.5049   -0.1738 H   0  0  0  0  0  0  0  0  0  0  0  0
    8.6882   -2.5930    0.1872 H   0  0  0  0  0  0  0  0  0  0  0  0
   31.7601    0.0107    0.0207 Ni  0  0  0  0  0  0  0  0  0  0  0  0
   35.1514   -0.0507    0.1739 C   0  0  0  0  0  0  0  0  0  0  0  0
   34.4990   -1.2098   -0.1901 C   0  0  0  0  0  0  0  0  0  0  0  0
   35.1769   -2.4234   -0.5310 C   0  0  0  0  0  0  0  0  0  0  0  0
   34.2192   -3.3507   -0.7628 C   0  0  0  0  0  0  0  0  0  0  0  0
   32.9566   -2.7049   -0.5508 C   0  0  0  0  0  0  0  0  0  0  0  0
   33.1380   -1.3830   -0.2297 N   0  0  0  0  0  0  0  0  0  0  0  0
   31.7326   -3.3551   -0.6300 C   0  0  0  0  0  0  0  0  0  0  0  0
   31.7169   -4.8116   -0.9120 C   0  0  0  0  0  0  0  0  0  0  0  0
   32.2904   -5.7103   -0.0176 C   0  0  0  0  0  0  0  0  0  0  0  0
   32.2677   -7.0796   -0.2800 C   0  0  0  0  0  0  0  0  0  0  0  0
   32.8885   -7.9889    0.7161 C   0  0  0  0  0  0  0  0  0  0  0  0
   32.8016   -9.2854    0.3854 O   0  0  0  0  0  0  0  0  0  0  0  0
   33.4242   -7.6218    1.7304 O   0  0  0  0  0  0  0  0  0  0  0  0
   31.6734   -7.5580   -1.4476 C   0  0  0  0  0  0  0  0  0  0  0  0
   31.1051   -6.6640   -2.3415 C   0  0  0  0  0  0  0  0  0  0  0  0
   31.1227   -5.3018   -2.0770 C   0  0  0  0  0  0  0  0  0  0  0  0
   30.5208   -2.7030   -0.4488 C   0  0  0  0  0  0  0  0  0  0  0  0
   29.2524   -3.3664   -0.4666 C   0  0  0  0  0  0  0  0  0  0  0  0
   28.3078   -2.4075   -0.3150 C   0  0  0  0  0  0  0  0  0  0  0  0
   30.3551   -1.3504   -0.2543 N   0  0  0  0  0  0  0  0  0  0  0  0
   29.0012   -1.1643   -0.1991 C   0  0  0  0  0  0  0  0  0  0  0  0
   28.3469    0.0671   -0.1046 C   0  0  0  0  0  0  0  0  0  0  0  0
   29.0322    1.2774    0.0310 C   0  0  0  0  0  0  0  0  0  0  0  0
   28.3737    2.5433    0.0888 C   0  0  0  0  0  0  0  0  0  0  0  0
   29.3365    3.4728    0.2989 C   0  0  0  0  0  0  0  0  0  0  0  0
   30.5801    2.7682    0.3794 C   0  0  0  0  0  0  0  0  0  0  0  0
   30.3842    1.4200    0.1815 N   0  0  0  0  0  0  0  0  0  0  0  0
   31.7954    3.3801    0.6541 C   0  0  0  0  0  0  0  0  0  0  0  0
   31.8104    4.8375    0.9321 C   0  0  0  0  0  0  0  0  0  0  0  0
   31.1400    5.3521    2.0437 C   0  0  0  0  0  0  0  0  0  0  0  0
   31.1569    6.7141    2.3107 C   0  0  0  0  0  0  0  0  0  0  0  0
   31.8386    7.5781    1.4702 C   0  0  0  0  0  0  0  0  0  0  0  0
   32.5104    7.0757    0.3547 C   0  0  0  0  0  0  0  0  0  0  0  0
   33.2278    8.0346   -0.5227 C   0  0  0  0  0  0  0  0  0  0  0  0
   33.8504    7.4529   -1.5580 O   0  0  0  0  0  0  0  0  0  0  0  0
   33.2622    9.2250   -0.3425 O   0  0  0  0  0  0  0  0  0  0  0  0
   32.4971    5.7079    0.0888 C   0  0  0  0  0  0  0  0  0  0  0  0
   32.9978    2.6863    0.6841 C   0  0  0  0  0  0  0  0  0  0  0  0
   34.2587    3.2875    1.0080 C   0  0  0  0  0  0  0  0  0  0  0  0
   35.1987    2.3237    0.8715 C   0  0  0  0  0  0  0  0  0  0  0  0
   34.5109    1.1331    0.4745 C   0  0  0  0  0  0  0  0  0  0  0  0
   33.1595    1.3564    0.3865 N   0  0  0  0  0  0  0  0  0  0  0  0
   36.2337   -0.0707    0.2252 H   0  0  0  0  0  0  0  0  0  0  0  0
   36.2486   -2.5308   -0.5819 H   0  0  0  0  0  0  0  0  0  0  0  0
   34.3422   -4.3813   -1.0534 H   0  0  0  0  0  0  0  0  0  0  0  0
   32.7468   -5.3567    0.9004 H   0  0  0  0  0  0  0  0  0  0  0  0
   33.2260   -9.8106    1.0832 H   0  0  0  0  0  0  0  0  0  0  0  0
   31.6585   -8.6219   -1.6507 H   0  0  0  0  0  0  0  0  0  0  0  0
   30.6442   -7.0289   -3.2524 H   0  0  0  0  0  0  0  0  0  0  0  0
   30.6837   -4.6067   -2.7840 H   0  0  0  0  0  0  0  0  0  0  0  0
   29.1132   -4.4297   -0.5737 H   0  0  0  0  0  0  0  0  0  0  0  0
   27.2359   -2.5166   -0.2830 H   0  0  0  0  0  0  0  0  0  0  0  0
   27.3108    2.6859   -0.0209 H   0  0  0  0  0  0  0  0  0  0  0  0
   29.2256    4.5411    0.3871 H   0  0  0  0  0  0  0  0  0  0  0  0
   30.6149    4.6754    2.7084 H   0  0  0  0  0  0  0  0  0  0  0  0
   30.6363    7.0991    3.1801 H   0  0  0  0  0  0  0  0  0  0  0  0
   31.8613    8.6447    1.6636 H   0  0  0  0  0  0  0  0  0  0  0  0
   34.2908    8.1431   -2.0800 H   0  0  0  0  0  0  0  0  0  0  0  0
   33.0101    5.3210   -0.7838 H   0  0  0  0  0  0  0  0  0  0  0  0
   34.3930    4.3151    1.3044 H   0  0  0  0  0  0  0  0  0  0  0  0
   36.2643    2.3922    1.0220 H   0  0  0  0  0  0  0  0  0  0  0  0
   18.0122   -0.0415   -0.1641 C   0  0  0  0  0  0  0  0  0  0  0  0
   19.2359   -0.0259   -0.1925 C   0  0  0  0  0  0  0  0  0  0  0  0
   20.5787   -0.0096   -0.2122 C   0  0  0  0  0  0  0  0  0  0  0  0
   21.8085    0.0209   -0.2189 C   0  0  0  0  0  0  0  0  0  0  0  0
   23.1465    0.0441   -0.2145 C   0  0  0  0  0  0  0  0  0  0  0  0
   24.3765    0.0688   -0.1991 C   0  0  0  0  0  0  0  0  0  0  0  0
   25.7192    0.0779   -0.1756 C   0  0  0  0  0  0  0  0  0  0  0  0
   26.9429    0.0841   -0.1445 C   0  0  0  0  0  0  0  0  0  0  0  0
  2  3  4  0  0  0  0
  3  4  4  0  0  0  0
  4  5  2  0  0  0  0
  5  6  4  0  0  0  0
  1  7  1  0  0  0  0
  3  7  4  0  0  0  0
  6  7  4  0  0  0  0
  6  8  4  0  0  0  0
  8  9  1  0  0  0  0
  9 10  4  0  0  0  0
 10 11  4  0  0  0  0
 11 12  1  0  0  0  0
 12 13  4  0  0  0  0
 12 14  2  0  0  0  0
 11 15  4  0  0  0  0
 15 16  4  0  0  0  0
  9 17  4  0  0  0  0
 16 17  4  0  0  0  0
  8 18  4  0  0  0  0
 18 19  4  0  0  0  0
 19 20  2  0  0  0  0
  1 21  1  0  0  0  0
 18 21  4  0  0  0  0
 20 22  4  0  0  0  0
 21 22  4  0  0  0  0
 22 23  4  0  0  0  0
 23 24  4  0  0  0  0
 24 25  4  0  0  0  0
 25 26  2  0  0  0  0
 26 27  4  0  0  0  0
  1 28  1  0  0  0  0
 24 28  4  0  0  0  0
 27 28  4  0  0  0  0
 27 29  4  0  0  0  0
 29 30  1  0  0  0  0
 30 31  4  0  0  0  0
 31 32  4  0  0  0  0
 32 33  4  0  0  0  0
 33 34  4  0  0  0  0
 34 35  1  0  0  0  0
 35 36  4  0  0  0  0
 35 37  2  0  0  0  0
 30 38  4  0  0  0  0
 34 38  4  0  0  0  0
 29 39  4  0  0  0  0
 39 40  4  0  0  0  0
 40 41  2  0  0  0  0
  2 42  4  0  0  0  0
 41 42  4  0  0  0  0
  1 43  1  0  0  0  0
 39 43  4  0  0  0  0
 42 43  4  0  0  0  0
  2 44  1  0  0  0  0
  4 45  1  0  0  0  0
  5 46  1  0  0  0  0
 10 47  1  0  0  0  0
 13 48  1  0  0  0  0
 15 49  1  0  0  0  0
 16 50  1  0  0  0  0
 17 51  1  0  0  0  0
 19 52  1  0  0  0  0
 20 53  1  0  0  0  0
 25 54  1  0  0  0  0
 26 55  1  0  0  0  0
 31 56  1  0  0  0  0
 32 57  1  0  0  0  0
 33 58  1  0  0  0  0
 36 59  1  0  0  0  0
 38 60  1  0  0  0  0
 40 61  1  0  0  0  0
 41 62  1  0  0  0  0
 64 65  4  0  0  0  0
 65 66  4  0  0  0  0
 66 67  2  0  0  0  0
 67 68  4  0  0  0  0
 63 69  1  0  0  0  0
 65 69  4  0  0  0  0
 68 69  4  0  0  0  0
 68 70  4  0  0  0  0
 70 71  1  0  0  0  0
 71 72  4  0  0  0  0
 72 73  4  0  0  0  0
 73 74  1  0  0  0  0
 74 75  4  0  0  0  0
 74 76  2  0  0  0  0
 73 77  4  0  0  0  0
 77 78  4  0  0  0  0
 71 79  4  0  0  0  0
 78 79  4  0  0  0  0
 70 80  4  0  0  0  0
 80 81  4  0  0  0  0
 81 82  2  0  0  0  0
 63 83  1  0  0  0  0
 80 83  4  0  0  0  0
 82 84  4  0  0  0  0
 83 84  4  0  0  0  0
 84 85  4  0  0  0  0
 85 86  4  0  0  0  0
 86 87  4  0  0  0  0
 87 88  2  0  0  0  0
 88 89  4  0  0  0  0
 63 90  1  0  0  0  0
 86 90  4  0  0  0  0
 89 90  4  0  0  0  0
 89 91  4  0  0  0  0
 91 92  1  0  0  0  0
 92 93  4  0  0  0  0
 93 94  4  0  0  0  0
 94 95  4  0  0  0  0
 95 96  4  0  0  0  0
 96 97  1  0  0  0  0
 97 98  4  0  0  0  0
 97 99  2  0  0  0  0
 92100  4  0  0  0  0
 96100  4  0  0  0  0
 91101  4  0  0  0  0
101102  4  0  0  0  0
102103  2  0  0  0  0
 64104  4  0  0  0  0
103104  4  0  0  0  0
 63105  1  0  0  0  0
101105  4  0  0  0  0
104105  4  0  0  0  0
 64106  1  0  0  0  0
 66107  1  0  0  0  0
 67108  1  0  0  0  0
 72109  1  0  0  0  0
 75110  1  0  0  0  0
 77111  1  0  0  0  0
 78112  1  0  0  0  0
 79113  1  0  0  0  0
 81114  1  0  0  0  0
 82115  1  0  0  0  0
 87116  1  0  0  0  0
 88117  1  0  0  0  0
 93118  1  0  0  0  0
 94119  1  0  0  0  0
 95120  1  0  0  0  0
 98121  1  0  0  0  0
100122  1  0  0  0  0
102123  1  0  0  0  0
103124  1  0  0  0  0
 23125  4  0  0  0  0
125126  3  0  0  0  0
126127  4  0  0  0  0
127128  3  0  0  0  0
128129  4  0  0  0  0
129130  3  0  0  0  0
130131  4  0  0  0  0
 85132  4  0  0  0  0
131132  3  0  0  0  0
M  END
