 xtb: 6.5.1 (b24c23e)
          07302208263D

306345  0     0  0            999 V2000
   49.4359    0.0128   -0.0222 Cu  0  0  0  0  0  0  0  0  0  0  0  0
   46.0221    0.0768   -0.0329 C   0  0  0  0  0  0  0  0  0  0  0  0
   46.6682    1.2049    0.4512 C   0  0  0  0  0  0  0  0  0  0  0  0
   46.0084    2.3819    0.9421 C   0  0  0  0  0  0  0  0  0  0  0  0
   46.9787    3.2505    1.3215 C   0  0  0  0  0  0  0  0  0  0  0  0
   48.2402    2.6109    1.0654 C   0  0  0  0  0  0  0  0  0  0  0  0
   48.0209    1.3712    0.5369 N   0  0  0  0  0  0  0  0  0  0  0  0
   49.4880    3.1773    1.3218 C   0  0  0  0  0  0  0  0  0  0  0  0
   49.5128    4.5520    1.9020 C   0  0  0  0  0  0  0  0  0  0  0  0
   49.5402    5.6651    1.0569 C   0  0  0  0  0  0  0  0  0  0  0  0
   49.5429    5.4742   -0.4366 C   0  0  0  0  0  0  0  0  0  0  0  0
   49.5643    6.9410    1.6075 C   0  0  0  0  0  0  0  0  0  0  0  0
   49.5607    7.1244    2.9867 C   0  0  0  0  0  0  0  0  0  0  0  0
   49.6086    8.5113    3.5689 C   0  0  0  0  0  0  0  0  0  0  0  0
   49.5335    6.0098    3.8181 C   0  0  0  0  0  0  0  0  0  0  0  0
   49.5090    4.7246    3.2889 C   0  0  0  0  0  0  0  0  0  0  0  0
   49.4781    3.5226    4.1950 C   0  0  0  0  0  0  0  0  0  0  0  0
   50.7152    2.5630    1.0789 C   0  0  0  0  0  0  0  0  0  0  0  0
   51.9934    3.1582    1.3481 C   0  0  0  0  0  0  0  0  0  0  0  0
   52.9373    2.2563    0.9764 C   0  0  0  0  0  0  0  0  0  0  0  0
   50.8997    1.3131    0.5506 N   0  0  0  0  0  0  0  0  0  0  0  0
   52.2431    1.1059    0.4780 C   0  0  0  0  0  0  0  0  0  0  0  0
   52.8715   -0.0495   -0.0162 C   0  0  0  0  0  0  0  0  0  0  0  0
   52.2039   -1.1825   -0.5106 C   0  0  0  0  0  0  0  0  0  0  0  0
   52.8578   -2.3591   -1.0023 C   0  0  0  0  0  0  0  0  0  0  0  0
   51.8832   -3.2279   -1.3734 C   0  0  0  0  0  0  0  0  0  0  0  0
   50.6265   -2.5858   -1.1114 C   0  0  0  0  0  0  0  0  0  0  0  0
   50.8542   -1.3413   -0.5871 N   0  0  0  0  0  0  0  0  0  0  0  0
   49.3784   -3.1549   -1.3582 C   0  0  0  0  0  0  0  0  0  0  0  0
   49.3542   -4.5327   -1.9310 C   0  0  0  0  0  0  0  0  0  0  0  0
   49.3554   -4.7129   -3.3177 C   0  0  0  0  0  0  0  0  0  0  0  0
   49.3788   -3.5156   -4.2301 C   0  0  0  0  0  0  0  0  0  0  0  0
   49.3344   -6.0003   -3.8391 C   0  0  0  0  0  0  0  0  0  0  0  0
   49.3126   -7.1115   -3.0006 C   0  0  0  0  0  0  0  0  0  0  0  0
   49.2852   -8.4966   -3.5885 C   0  0  0  0  0  0  0  0  0  0  0  0
   49.3107   -6.9206   -1.6238 C   0  0  0  0  0  0  0  0  0  0  0  0
   49.3314   -5.6406   -1.0802 C   0  0  0  0  0  0  0  0  0  0  0  0
   49.3300   -5.4420    0.4122 C   0  0  0  0  0  0  0  0  0  0  0  0
   48.1514   -2.5408   -1.1116 C   0  0  0  0  0  0  0  0  0  0  0  0
   46.8685   -3.1331   -1.3750 C   0  0  0  0  0  0  0  0  0  0  0  0
   45.9290   -2.2274   -1.0051 C   0  0  0  0  0  0  0  0  0  0  0  0
   46.6292   -1.0750   -0.5117 C   0  0  0  0  0  0  0  0  0  0  0  0
   47.9753   -1.2922   -0.5878 N   0  0  0  0  0  0  0  0  0  0  0  0
   44.9372    0.0969   -0.0369 H   0  0  0  0  0  0  0  0  0  0  0  0
   44.9385    2.5125    0.9854 H   0  0  0  0  0  0  0  0  0  0  0  0
   46.8647    4.2383    1.7390 H   0  0  0  0  0  0  0  0  0  0  0  0
   48.6473    4.9349   -0.7510 H   0  0  0  0  0  0  0  0  0  0  0  0
   50.4104    4.8862   -0.7418 H   0  0  0  0  0  0  0  0  0  0  0  0
   49.5720    6.4338   -0.9519 H   0  0  0  0  0  0  0  0  0  0  0  0
   49.5850    7.8050    0.9514 H   0  0  0  0  0  0  0  0  0  0  0  0
   49.1669    8.5308    4.5654 H   0  0  0  0  0  0  0  0  0  0  0  0
   50.6460    8.8445    3.6499 H   0  0  0  0  0  0  0  0  0  0  0  0
   49.0754    9.2179    2.9323 H   0  0  0  0  0  0  0  0  0  0  0  0
   49.5301    6.1431    4.8950 H   0  0  0  0  0  0  0  0  0  0  0  0
   50.3446    2.8853    4.0087 H   0  0  0  0  0  0  0  0  0  0  0  0
   49.4843    3.8237    5.2421 H   0  0  0  0  0  0  0  0  0  0  0  0
   48.5813    2.9292    4.0066 H   0  0  0  0  0  0  0  0  0  0  0  0
   52.1385    4.1410    1.7673 H   0  0  0  0  0  0  0  0  0  0  0  0
   54.0101    2.3517    1.0294 H   0  0  0  0  0  0  0  0  0  0  0  0
   53.9267   -2.4932   -1.0511 H   0  0  0  0  0  0  0  0  0  0  0  0
   51.9942   -4.2172   -1.7877 H   0  0  0  0  0  0  0  0  0  0  0  0
   48.5003   -2.8908   -4.0572 H   0  0  0  0  0  0  0  0  0  0  0  0
   49.3889   -3.8225   -5.2755 H   0  0  0  0  0  0  0  0  0  0  0  0
   50.2640   -2.9074   -4.0349 H   0  0  0  0  0  0  0  0  0  0  0  0
   49.3359   -6.1414   -4.9151 H   0  0  0  0  0  0  0  0  0  0  0  0
   50.1076   -8.6275   -4.2938 H   0  0  0  0  0  0  0  0  0  0  0  0
   49.3692   -9.2541   -2.8094 H   0  0  0  0  0  0  0  0  0  0  0  0
   48.3503   -8.6578   -4.1291 H   0  0  0  0  0  0  0  0  0  0  0  0
   49.2937   -7.7800   -0.9616 H   0  0  0  0  0  0  0  0  0  0  0  0
   48.4553   -4.8641    0.7165 H   0  0  0  0  0  0  0  0  0  0  0  0
   50.2190   -4.8892    0.7218 H   0  0  0  0  0  0  0  0  0  0  0  0
   49.3147   -6.3992    0.9326 H   0  0  0  0  0  0  0  0  0  0  0  0
   46.7203   -4.1170   -1.7911 H   0  0  0  0  0  0  0  0  0  0  0  0
   44.8552   -2.3176   -1.0557 H   0  0  0  0  0  0  0  0  0  0  0  0
   89.8998   -0.0374   -0.0656 Cu  0  0  0  0  0  0  0  0  0  0  0  0
   93.3138   -0.0756   -0.1050 C   0  0  0  0  0  0  0  0  0  0  0  0
   92.6695   -1.2183   -0.5560 C   0  0  0  0  0  0  0  0  0  0  0  0
   93.3309   -2.4021   -1.0281 C   0  0  0  0  0  0  0  0  0  0  0  0
   92.3618   -3.2832   -1.3806 C   0  0  0  0  0  0  0  0  0  0  0  0
   91.0993   -2.6441   -1.1281 C   0  0  0  0  0  0  0  0  0  0  0  0
   91.3169   -1.3934   -0.6255 N   0  0  0  0  0  0  0  0  0  0  0  0
   89.8522   -3.2184   -1.3702 C   0  0  0  0  0  0  0  0  0  0  0  0
   89.8298   -4.6028   -1.9271 C   0  0  0  0  0  0  0  0  0  0  0  0
   89.8413   -4.8002   -3.3108 C   0  0  0  0  0  0  0  0  0  0  0  0
   89.8776   -3.6147   -4.2381 C   0  0  0  0  0  0  0  0  0  0  0  0
   89.8200   -6.0946   -3.8167 C   0  0  0  0  0  0  0  0  0  0  0  0
   89.7885   -7.1944   -2.9653 C   0  0  0  0  0  0  0  0  0  0  0  0
   89.7444   -8.5902   -3.5261 C   0  0  0  0  0  0  0  0  0  0  0  0
   89.7770   -6.9862   -1.5901 C   0  0  0  0  0  0  0  0  0  0  0  0
   89.7976   -5.7004   -1.0624 C   0  0  0  0  0  0  0  0  0  0  0  0
   89.7866   -5.4829    0.4274 C   0  0  0  0  0  0  0  0  0  0  0  0
   88.6241   -2.6043   -1.1314 C   0  0  0  0  0  0  0  0  0  0  0  0
   87.3468   -3.2042   -1.3934 C   0  0  0  0  0  0  0  0  0  0  0  0
   86.4016   -2.3034   -1.0227 C   0  0  0  0  0  0  0  0  0  0  0  0
   88.4380   -1.3517   -0.6100 N   0  0  0  0  0  0  0  0  0  0  0  0
   87.0942   -1.1489   -0.5312 C   0  0  0  0  0  0  0  0  0  0  0  0
   86.4642    0.0024   -0.0297 C   0  0  0  0  0  0  0  0  0  0  0  0
   87.1303    1.1383    0.4601 C   0  0  0  0  0  0  0  0  0  0  0  0
   86.4749    2.3073    0.9678 C   0  0  0  0  0  0  0  0  0  0  0  0
   87.4482    3.1851    1.3207 C   0  0  0  0  0  0  0  0  0  0  0  0
   88.7056    2.5563    1.0311 C   0  0  0  0  0  0  0  0  0  0  0  0
   88.4797    1.3096    0.5115 N   0  0  0  0  0  0  0  0  0  0  0  0
   89.9526    3.1412    1.2441 C   0  0  0  0  0  0  0  0  0  0  0  0
   89.9749    4.5236    1.8059 C   0  0  0  0  0  0  0  0  0  0  0  0
   89.9627    5.6255    0.9449 C   0  0  0  0  0  0  0  0  0  0  0  0
   89.9280    5.4134   -0.5453 C   0  0  0  0  0  0  0  0  0  0  0  0
   89.9831    6.9084    1.4771 C   0  0  0  0  0  0  0  0  0  0  0  0
   90.0147    7.1111    2.8541 C   0  0  0  0  0  0  0  0  0  0  0  0
   90.0424    8.5105    3.4073 C   0  0  0  0  0  0  0  0  0  0  0  0
   90.0267    6.0087    3.7005 C   0  0  0  0  0  0  0  0  0  0  0  0
   90.0068    4.7154    3.1893 C   0  0  0  0  0  0  0  0  0  0  0  0
   90.0189    3.5262    4.1125 C   0  0  0  0  0  0  0  0  0  0  0  0
   91.1804    2.5393    0.9723 C   0  0  0  0  0  0  0  0  0  0  0  0
   92.4624    3.1491    1.1979 C   0  0  0  0  0  0  0  0  0  0  0  0
   93.4032    2.2477    0.8208 C   0  0  0  0  0  0  0  0  0  0  0  0
   92.7048    1.0803    0.3614 C   0  0  0  0  0  0  0  0  0  0  0  0
   91.3584    1.2854    0.4620 N   0  0  0  0  0  0  0  0  0  0  0  0
   94.3988   -0.0873   -0.1173 H   0  0  0  0  0  0  0  0  0  0  0  0
   94.4011   -2.5286   -1.0775 H   0  0  0  0  0  0  0  0  0  0  0  0
   92.4773   -4.2792   -1.7777 H   0  0  0  0  0  0  0  0  0  0  0  0
   90.7805   -3.0260   -4.0646 H   0  0  0  0  0  0  0  0  0  0  0  0
   89.0176   -2.9667   -4.0588 H   0  0  0  0  0  0  0  0  0  0  0  0
   89.8638   -3.9342   -5.2797 H   0  0  0  0  0  0  0  0  0  0  0  0
   89.8295   -6.2477   -4.8910 H   0  0  0  0  0  0  0  0  0  0  0  0
   90.1885   -9.3030   -2.8308 H   0  0  0  0  0  0  0  0  0  0  0  0
   88.7078   -8.8874   -3.7016 H   0  0  0  0  0  0  0  0  0  0  0  0
   90.2774   -8.6443   -4.4757 H   0  0  0  0  0  0  0  0  0  0  0  0
   89.7529   -7.8380   -0.9183 H   0  0  0  0  0  0  0  0  0  0  0  0
   88.9116   -4.8985    0.7183 H   0  0  0  0  0  0  0  0  0  0  0  0
   89.7648   -6.4333    0.9597 H   0  0  0  0  0  0  0  0  0  0  0  0
   90.6751   -4.9288    0.7360 H   0  0  0  0  0  0  0  0  0  0  0  0
   87.2031   -4.1891   -1.8083 H   0  0  0  0  0  0  0  0  0  0  0  0
   85.3289   -2.4019   -1.0719 H   0  0  0  0  0  0  0  0  0  0  0  0
   85.4059    2.4303    1.0394 H   0  0  0  0  0  0  0  0  0  0  0  0
   87.3359    4.1723    1.7397 H   0  0  0  0  0  0  0  0  0  0  0  0
   90.8074    4.8530   -0.8685 H   0  0  0  0  0  0  0  0  0  0  0  0
   89.9071    6.3660   -1.0739 H   0  0  0  0  0  0  0  0  0  0  0  0
   89.0441    4.8376   -0.8258 H   0  0  0  0  0  0  0  0  0  0  0  0
   89.9733    7.7641    0.8099 H   0  0  0  0  0  0  0  0  0  0  0  0
   89.2196    9.0987    2.9975 H   0  0  0  0  0  0  0  0  0  0  0  0
   89.9597    8.5034    4.4941 H   0  0  0  0  0  0  0  0  0  0  0  0
   90.9770    9.0047    3.1343 H   0  0  0  0  0  0  0  0  0  0  0  0
   90.0509    6.1560    4.7753 H   0  0  0  0  0  0  0  0  0  0  0  0
   90.8948    2.9044    3.9177 H   0  0  0  0  0  0  0  0  0  0  0  0
   89.1313    2.9117    3.9506 H   0  0  0  0  0  0  0  0  0  0  0  0
   90.0397    3.8425    5.1550 H   0  0  0  0  0  0  0  0  0  0  0  0
   92.6091    4.1408    1.5955 H   0  0  0  0  0  0  0  0  0  0  0  0
   94.4768    2.3499    0.8461 H   0  0  0  0  0  0  0  0  0  0  0  0
   55.5012   -0.0888   -0.0099 C   0  0  0  0  0  0  0  0  0  0  0  0
   54.2803   -0.0737   -0.0146 C   0  0  0  0  0  0  0  0  0  0  0  0
   56.8532   -0.1014   -0.0104 C   0  0  0  0  0  0  0  0  0  0  0  0
   58.0743   -0.1090   -0.0091 C   0  0  0  0  0  0  0  0  0  0  0  0
   68.9930   -0.0647   -0.0248 C   0  0  0  0  0  0  0  0  0  0  0  0
   67.7709   -0.0734   -0.0247 C   0  0  0  0  0  0  0  0  0  0  0  0
   70.3422   -0.0510   -0.0264 C   0  0  0  0  0  0  0  0  0  0  0  0
   71.5643   -0.0415   -0.0237 C   0  0  0  0  0  0  0  0  0  0  0  0
   82.4823    0.0371   -0.0064 C   0  0  0  0  0  0  0  0  0  0  0  0
   81.2612    0.0374   -0.0030 C   0  0  0  0  0  0  0  0  0  0  0  0
   83.8344    0.0281   -0.0097 C   0  0  0  0  0  0  0  0  0  0  0  0
   85.0552    0.0178   -0.0167 C   0  0  0  0  0  0  0  0  0  0  0  0
   62.9238   -0.0984   -0.0161 Cu  0  0  0  0  0  0  0  0  0  0  0  0
   59.4827   -0.1108   -0.0104 C   0  0  0  0  0  0  0  0  0  0  0  0
   60.1326    0.0700    1.2226 C   0  0  0  0  0  0  0  0  0  0  0  0
   59.4607    0.2477    2.4757 C   0  0  0  0  0  0  0  0  0  0  0  0
   60.4221    0.3702    3.4264 C   0  0  0  0  0  0  0  0  0  0  0  0
   61.6878    0.2682    2.7580 C   0  0  0  0  0  0  0  0  0  0  0  0
   61.4793    0.0885    1.4168 N   0  0  0  0  0  0  0  0  0  0  0  0
   62.9277    0.3365    3.3911 C   0  0  0  0  0  0  0  0  0  0  0  0
   62.9297    0.5275    4.8713 C   0  0  0  0  0  0  0  0  0  0  0  0
   62.9499    1.8180    5.4072 C   0  0  0  0  0  0  0  0  0  0  0  0
   62.9667    3.0119    4.4901 C   0  0  0  0  0  0  0  0  0  0  0  0
   62.9524    1.9852    6.7874 C   0  0  0  0  0  0  0  0  0  0  0  0
   62.9335    0.8867    7.6400 C   0  0  0  0  0  0  0  0  0  0  0  0
   62.9554    1.0757    9.1329 C   0  0  0  0  0  0  0  0  0  0  0  0
   62.9131   -0.3936    7.0954 C   0  0  0  0  0  0  0  0  0  0  0  0
   62.9103   -0.5840    5.7188 C   0  0  0  0  0  0  0  0  0  0  0  0
   62.8851   -1.9721    5.1363 C   0  0  0  0  0  0  0  0  0  0  0  0
   64.1661    0.2444    2.7585 C   0  0  0  0  0  0  0  0  0  0  0  0
   65.4334    0.3169    3.4274 C   0  0  0  0  0  0  0  0  0  0  0  0
   66.3925    0.2004    2.4734 C   0  0  0  0  0  0  0  0  0  0  0  0
   64.3717    0.0822    1.4141 N   0  0  0  0  0  0  0  0  0  0  0  0
   65.7173    0.0561    1.2181 C   0  0  0  0  0  0  0  0  0  0  0  0
   66.3658   -0.0813   -0.0227 C   0  0  0  0  0  0  0  0  0  0  0  0
   65.7144   -0.2245   -1.2612 C   0  0  0  0  0  0  0  0  0  0  0  0
   66.3861   -0.3575   -2.5196 C   0  0  0  0  0  0  0  0  0  0  0  0
   65.4245   -0.4793   -3.4704 C   0  0  0  0  0  0  0  0  0  0  0  0
   64.1592   -0.4222   -2.7962 C   0  0  0  0  0  0  0  0  0  0  0  0
   64.3684   -0.2638   -1.4520 N   0  0  0  0  0  0  0  0  0  0  0  0
   62.9193   -0.5227   -3.4248 C   0  0  0  0  0  0  0  0  0  0  0  0
   62.9199   -0.6983   -4.9068 C   0  0  0  0  0  0  0  0  0  0  0  0
   62.8866    0.4230   -5.7409 C   0  0  0  0  0  0  0  0  0  0  0  0
   62.8458    1.8037   -5.1418 C   0  0  0  0  0  0  0  0  0  0  0  0
   62.8923    0.2493   -7.1197 C   0  0  0  0  0  0  0  0  0  0  0  0
   62.9298   -1.0239   -7.6795 C   0  0  0  0  0  0  0  0  0  0  0  0
   62.9564   -1.1950   -9.1745 C   0  0  0  0  0  0  0  0  0  0  0  0
   62.9629   -2.1323   -6.8401 C   0  0  0  0  0  0  0  0  0  0  0  0
   62.9579   -1.9818   -5.4581 C   0  0  0  0  0  0  0  0  0  0  0  0
   62.9930   -3.1860   -4.5552 C   0  0  0  0  0  0  0  0  0  0  0  0
   61.6812   -0.4703   -2.7867 C   0  0  0  0  0  0  0  0  0  0  0  0
   60.4140   -0.5810   -3.4508 C   0  0  0  0  0  0  0  0  0  0  0  0
   59.4550   -0.4691   -2.4964 C   0  0  0  0  0  0  0  0  0  0  0  0
   60.1299   -0.2886   -1.2453 C   0  0  0  0  0  0  0  0  0  0  0  0
   61.4760   -0.2971   -1.4441 N   0  0  0  0  0  0  0  0  0  0  0  0
   58.3899    0.2727    2.6013 H   0  0  0  0  0  0  0  0  0  0  0  0
   60.2962    0.5164    4.4873 H   0  0  0  0  0  0  0  0  0  0  0  0
   63.8516    2.9867    3.8514 H   0  0  0  0  0  0  0  0  0  0  0  0
   62.9731    3.9407    5.0598 H   0  0  0  0  0  0  0  0  0  0  0  0
   62.0878    3.0042    3.8426 H   0  0  0  0  0  0  0  0  0  0  0  0
   62.9674    2.9875    7.2028 H   0  0  0  0  0  0  0  0  0  0  0  0
   63.9789    0.9863    9.5043 H   0  0  0  0  0  0  0  0  0  0  0  0
   62.3492    0.3164    9.6280 H   0  0  0  0  0  0  0  0  0  0  0  0
   62.5788    2.0615    9.4064 H   0  0  0  0  0  0  0  0  0  0  0  0
   62.8972   -1.2562    7.7535 H   0  0  0  0  0  0  0  0  0  0  0  0
   62.0025   -2.1027    4.5072 H   0  0  0  0  0  0  0  0  0  0  0  0
   63.7660   -2.1376    4.5132 H   0  0  0  0  0  0  0  0  0  0  0  0
   62.8674   -2.7248    5.9239 H   0  0  0  0  0  0  0  0  0  0  0  0
   65.5623    0.4415    4.4907 H   0  0  0  0  0  0  0  0  0  0  0  0
   67.4636    0.2105    2.5980 H   0  0  0  0  0  0  0  0  0  0  0  0
   67.4568   -0.3564   -2.6486 H   0  0  0  0  0  0  0  0  0  0  0  0
   65.5505   -0.5978   -4.5347 H   0  0  0  0  0  0  0  0  0  0  0  0
   61.9622    1.9171   -4.5109 H   0  0  0  0  0  0  0  0  0  0  0  0
   62.8197    2.5655   -5.9203 H   0  0  0  0  0  0  0  0  0  0  0  0
   63.7252    1.9714   -4.5171 H   0  0  0  0  0  0  0  0  0  0  0  0
   62.8663    1.1196   -7.7674 H   0  0  0  0  0  0  0  0  0  0  0  0
   62.5774   -2.1761   -9.4613 H   0  0  0  0  0  0  0  0  0  0  0  0
   63.9817   -1.1051   -9.5410 H   0  0  0  0  0  0  0  0  0  0  0  0
   62.3549   -0.4276   -9.6628 H   0  0  0  0  0  0  0  0  0  0  0  0
   62.9921   -3.1292   -7.2677 H   0  0  0  0  0  0  0  0  0  0  0  0
   63.0110   -4.1079   -5.1357 H   0  0  0  0  0  0  0  0  0  0  0  0
   62.1160   -3.1981   -3.9053 H   0  0  0  0  0  0  0  0  0  0  0  0
   63.8793   -3.1560   -3.9185 H   0  0  0  0  0  0  0  0  0  0  0  0
   60.2856   -0.7255   -4.5117 H   0  0  0  0  0  0  0  0  0  0  0  0
   58.3840   -0.5027   -2.6180 H   0  0  0  0  0  0  0  0  0  0  0  0
   76.4115    0.0037   -0.0135 Cu  0  0  0  0  0  0  0  0  0  0  0  0
   72.9694   -0.0283   -0.0209 C   0  0  0  0  0  0  0  0  0  0  0  0
   73.6152    0.1316    1.2186 C   0  0  0  0  0  0  0  0  0  0  0  0
   72.9375    0.2835    2.4717 C   0  0  0  0  0  0  0  0  0  0  0  0
   73.8947    0.4099    3.4264 C   0  0  0  0  0  0  0  0  0  0  0  0
   75.1633    0.3361    2.7600 C   0  0  0  0  0  0  0  0  0  0  0  0
   74.9602    0.1665    1.4162 N   0  0  0  0  0  0  0  0  0  0  0  0
   76.4004    0.4254    3.3954 C   0  0  0  0  0  0  0  0  0  0  0  0
   76.3936    0.6025    4.8773 C   0  0  0  0  0  0  0  0  0  0  0  0
   76.3906    1.8873    5.4268 C   0  0  0  0  0  0  0  0  0  0  0  0
   76.3994    3.0908    4.5223 C   0  0  0  0  0  0  0  0  0  0  0  0
   76.3770    2.0399    6.8086 C   0  0  0  0  0  0  0  0  0  0  0  0
   76.3654    0.9323    7.6494 C   0  0  0  0  0  0  0  0  0  0  0  0
   76.3677    1.1049    9.1445 C   0  0  0  0  0  0  0  0  0  0  0  0
   76.3705   -0.3424    7.0913 C   0  0  0  0  0  0  0  0  0  0  0  0
   76.3840   -0.5182    5.7130 C   0  0  0  0  0  0  0  0  0  0  0  0
   76.3861   -1.9003    5.1159 C   0  0  0  0  0  0  0  0  0  0  0  0
   77.6417    0.3621    2.7644 C   0  0  0  0  0  0  0  0  0  0  0  0
   78.9060    0.4569    3.4364 C   0  0  0  0  0  0  0  0  0  0  0  0
   79.8693    0.3506    2.4857 C   0  0  0  0  0  0  0  0  0  0  0  0
   77.8529    0.2007    1.4212 N   0  0  0  0  0  0  0  0  0  0  0  0
   79.1999    0.1892    1.2290 C   0  0  0  0  0  0  0  0  0  0  0  0
   79.8527    0.0321   -0.0057 C   0  0  0  0  0  0  0  0  0  0  0  0
   79.2083   -0.1333   -1.2438 C   0  0  0  0  0  0  0  0  0  0  0  0
   79.8859   -0.2836   -2.4975 C   0  0  0  0  0  0  0  0  0  0  0  0
   78.9286   -0.4067   -3.4523 C   0  0  0  0  0  0  0  0  0  0  0  0
   77.6600   -0.3327   -2.7859 C   0  0  0  0  0  0  0  0  0  0  0  0
   77.8625   -0.1665   -1.4421 N   0  0  0  0  0  0  0  0  0  0  0  0
   76.4228   -0.4183   -3.4224 C   0  0  0  0  0  0  0  0  0  0  0  0
   76.4289   -0.5984   -4.9039 C   0  0  0  0  0  0  0  0  0  0  0  0
   76.4260    0.5203   -5.7422 C   0  0  0  0  0  0  0  0  0  0  0  0
   76.4167    1.9037   -5.1481 C   0  0  0  0  0  0  0  0  0  0  0  0
   76.4322    0.3414   -7.1202 C   0  0  0  0  0  0  0  0  0  0  0  0
   76.4404   -0.9345   -7.6754 C   0  0  0  0  0  0  0  0  0  0  0  0
   76.4673   -1.1110   -9.1697 C   0  0  0  0  0  0  0  0  0  0  0  0
   76.4439   -2.0402   -6.8320 C   0  0  0  0  0  0  0  0  0  0  0  0
   76.4379   -1.8845   -5.4505 C   0  0  0  0  0  0  0  0  0  0  0  0
   76.4399   -3.0861   -4.5433 C   0  0  0  0  0  0  0  0  0  0  0  0
   75.1816   -0.3501   -2.7926 C   0  0  0  0  0  0  0  0  0  0  0  0
   73.9174   -0.4441   -3.4647 C   0  0  0  0  0  0  0  0  0  0  0  0
   72.9540   -0.3362   -2.5140 C   0  0  0  0  0  0  0  0  0  0  0  0
   73.6235   -0.1750   -1.2577 C   0  0  0  0  0  0  0  0  0  0  0  0
   74.9699   -0.1859   -1.4494 N   0  0  0  0  0  0  0  0  0  0  0  0
   71.8661    0.2917    2.5947 H   0  0  0  0  0  0  0  0  0  0  0  0
   73.7635    0.5430    4.4883 H   0  0  0  0  0  0  0  0  0  0  0  0
   77.2868    3.0802    3.8865 H   0  0  0  0  0  0  0  0  0  0  0  0
   76.3955    4.0136    5.1015 H   0  0  0  0  0  0  0  0  0  0  0  0
   75.5230    3.0819    3.8715 H   0  0  0  0  0  0  0  0  0  0  0  0
   76.3730    3.0379    7.2346 H   0  0  0  0  0  0  0  0  0  0  0  0
   77.3860    1.0096    9.5285 H   0  0  0  0  0  0  0  0  0  0  0  0
   75.7539    0.3409    9.6229 H   0  0  0  0  0  0  0  0  0  0  0  0
   75.9887    2.0880    9.4241 H   0  0  0  0  0  0  0  0  0  0  0  0
   76.3615   -1.2120    7.7404 H   0  0  0  0  0  0  0  0  0  0  0  0
   75.5000   -2.0458    4.4950 H   0  0  0  0  0  0  0  0  0  0  0  0
   77.2639   -2.0379    4.4818 H   0  0  0  0  0  0  0  0  0  0  0  0
   76.3949   -2.6614    5.8956 H   0  0  0  0  0  0  0  0  0  0  0  0
   79.0297    0.5869    4.4996 H   0  0  0  0  0  0  0  0  0  0  0  0
   80.9399    0.3763    2.6131 H   0  0  0  0  0  0  0  0  0  0  0  0
   80.9571   -0.2911   -2.6207 H   0  0  0  0  0  0  0  0  0  0  0  0
   79.0594   -0.5359   -4.5148 H   0  0  0  0  0  0  0  0  0  0  0  0
   75.5355    2.0399   -4.5184 H   0  0  0  0  0  0  0  0  0  0  0  0
   76.4091    2.6631   -5.9294 H   0  0  0  0  0  0  0  0  0  0  0  0
   77.2993    2.0531   -4.5232 H   0  0  0  0  0  0  0  0  0  0  0  0
   76.4292    1.2095   -7.7712 H   0  0  0  0  0  0  0  0  0  0  0  0
   76.0834   -2.0910   -9.4536 H   0  0  0  0  0  0  0  0  0  0  0  0
   77.4933   -1.0275   -9.5355 H   0  0  0  0  0  0  0  0  0  0  0  0
   75.8702   -0.3421   -9.6612 H   0  0  0  0  0  0  0  0  0  0  0  0
   76.4501   -3.0391   -7.2557 H   0  0  0  0  0  0  0  0  0  0  0  0
   76.4608   -4.0100   -5.1205 H   0  0  0  0  0  0  0  0  0  0  0  0
   75.5482   -3.0867   -3.9137 H   0  0  0  0  0  0  0  0  0  0  0  0
   77.3116   -3.0634   -3.8866 H   0  0  0  0  0  0  0  0  0  0  0  0
   73.7934   -0.5761   -4.5277 H   0  0  0  0  0  0  0  0  0  0  0  0
   71.8835   -0.3621   -2.6415 H   0  0  0  0  0  0  0  0  0  0  0  0
  2  3  4  0  0  0  0
  3  4  1  0  0  0  0
  4  5  2  0  0  0  0
  5  6  4  0  0  0  0
  1  7  1  0  0  0  0
  3  7  4  0  0  0  0
  6  7  4  0  0  0  0
  6  8  4  0  0  0  0
  8  9  1  0  0  0  0
  9 10  4  0  0  0  0
 10 11  1  0  0  0  0
 10 12  4  0  0  0  0
 12 13  4  0  0  0  0
 13 14  1  0  0  0  0
 13 15  4  0  0  0  0
  9 16  4  0  0  0  0
 15 16  4  0  0  0  0
 16 17  1  0  0  0  0
  8 18  4  0  0  0  0
 18 19  4  0  0  0  0
 19 20  2  0  0  0  0
  1 21  1  0  0  0  0
 18 21  4  0  0  0  0
 20 22  4  0  0  0  0
 21 22  4  0  0  0  0
 22 23  4  0  0  0  0
 23 24  4  0  0  0  0
 24 25  4  0  0  0  0
 25 26  2  0  0  0  0
 26 27  4  0  0  0  0
  1 28  1  0  0  0  0
 24 28  4  0  0  0  0
 27 28  4  0  0  0  0
 27 29  4  0  0  0  0
 29 30  1  0  0  0  0
 30 31  4  0  0  0  0
 31 32  1  0  0  0  0
 31 33  4  0  0  0  0
 33 34  4  0  0  0  0
 34 35  1  0  0  0  0
 34 36  4  0  0  0  0
 30 37  4  0  0  0  0
 36 37  4  0  0  0  0
 37 38  1  0  0  0  0
 29 39  4  0  0  0  0
 39 40  4  0  0  0  0
 40 41  2  0  0  0  0
  2 42  4  0  0  0  0
 41 42  1  0  0  0  0
  1 43  1  0  0  0  0
 39 43  4  0  0  0  0
 42 43  4  0  0  0  0
  2 44  1  0  0  0  0
  4 45  1  0  0  0  0
  5 46  1  0  0  0  0
 11 47  1  0  0  0  0
 11 48  1  0  0  0  0
 11 49  1  0  0  0  0
 12 50  1  0  0  0  0
 14 51  1  0  0  0  0
 14 52  1  0  0  0  0
 14 53  1  0  0  0  0
 15 54  1  0  0  0  0
 17 55  1  0  0  0  0
 17 56  1  0  0  0  0
 17 57  1  0  0  0  0
 19 58  1  0  0  0  0
 20 59  1  0  0  0  0
 25 60  1  0  0  0  0
 26 61  1  0  0  0  0
 32 62  1  0  0  0  0
 32 63  1  0  0  0  0
 32 64  1  0  0  0  0
 33 65  1  0  0  0  0
 35 66  1  0  0  0  0
 35 67  1  0  0  0  0
 35 68  1  0  0  0  0
 36 69  1  0  0  0  0
 38 70  1  0  0  0  0
 38 71  1  0  0  0  0
 38 72  1  0  0  0  0
 40 73  1  0  0  0  0
 41 74  1  0  0  0  0
 76 77  4  0  0  0  0
 77 78  1  0  0  0  0
 78 79  2  0  0  0  0
 79 80  4  0  0  0  0
 75 81  1  0  0  0  0
 77 81  4  0  0  0  0
 80 81  4  0  0  0  0
 80 82  4  0  0  0  0
 82 83  1  0  0  0  0
 83 84  4  0  0  0  0
 84 85  1  0  0  0  0
 84 86  4  0  0  0  0
 86 87  4  0  0  0  0
 87 88  1  0  0  0  0
 87 89  4  0  0  0  0
 83 90  4  0  0  0  0
 89 90  4  0  0  0  0
 90 91  1  0  0  0  0
 82 92  4  0  0  0  0
 92 93  4  0  0  0  0
 93 94  2  0  0  0  0
 75 95  1  0  0  0  0
 92 95  4  0  0  0  0
 94 96  4  0  0  0  0
 95 96  4  0  0  0  0
 96 97  4  0  0  0  0
 97 98  4  0  0  0  0
 98 99  4  0  0  0  0
 99100  2  0  0  0  0
100101  4  0  0  0  0
 75102  1  0  0  0  0
 98102  4  0  0  0  0
101102  4  0  0  0  0
101103  4  0  0  0  0
103104  1  0  0  0  0
104105  4  0  0  0  0
105106  1  0  0  0  0
105107  4  0  0  0  0
107108  4  0  0  0  0
108109  1  0  0  0  0
108110  4  0  0  0  0
104111  4  0  0  0  0
110111  4  0  0  0  0
111112  1  0  0  0  0
103113  4  0  0  0  0
113114  4  0  0  0  0
114115  2  0  0  0  0
 76116  4  0  0  0  0
115116  1  0  0  0  0
 75117  1  0  0  0  0
113117  4  0  0  0  0
116117  4  0  0  0  0
 76118  1  0  0  0  0
 78119  1  0  0  0  0
 79120  1  0  0  0  0
 85121  1  0  0  0  0
 85122  1  0  0  0  0
 85123  1  0  0  0  0
 86124  1  0  0  0  0
 88125  1  0  0  0  0
 88126  1  0  0  0  0
 88127  1  0  0  0  0
 89128  1  0  0  0  0
 91129  1  0  0  0  0
 91130  1  0  0  0  0
 91131  1  0  0  0  0
 93132  1  0  0  0  0
 94133  1  0  0  0  0
 99134  1  0  0  0  0
100135  1  0  0  0  0
106136  1  0  0  0  0
106137  1  0  0  0  0
106138  1  0  0  0  0
107139  1  0  0  0  0
109140  1  0  0  0  0
109141  1  0  0  0  0
109142  1  0  0  0  0
110143  1  0  0  0  0
112144  1  0  0  0  0
112145  1  0  0  0  0
112146  1  0  0  0  0
114147  1  0  0  0  0
115148  1  0  0  0  0
 23150  4  0  0  0  0
149150  3  0  0  0  0
149151  4  0  0  0  0
151152  3  0  0  0  0
153154  3  0  0  0  0
153155  4  0  0  0  0
155156  3  0  0  0  0
157158  3  0  0  0  0
157159  4  0  0  0  0
 97160  4  0  0  0  0
159160  3  0  0  0  0
152162  4  0  0  0  0
162163  4  0  0  0  0
163164  4  0  0  0  0
164165  2  0  0  0  0
165166  4  0  0  0  0
161167  1  0  0  0  0
163167  4  0  0  0  0
166167  4  0  0  0  0
166168  4  0  0  0  0
168169  1  0  0  0  0
169170  4  0  0  0  0
170171  1  0  0  0  0
170172  4  0  0  0  0
172173  4  0  0  0  0
173174  1  0  0  0  0
173175  4  0  0  0  0
169176  4  0  0  0  0
175176  4  0  0  0  0
176177  1  0  0  0  0
168178  4  0  0  0  0
178179  4  0  0  0  0
179180  2  0  0  0  0
161181  1  0  0  0  0
178181  4  0  0  0  0
180182  4  0  0  0  0
181182  4  0  0  0  0
154183  4  0  0  0  0
182183  4  0  0  0  0
183184  4  0  0  0  0
184185  4  0  0  0  0
185186  2  0  0  0  0
186187  4  0  0  0  0
161188  1  0  0  0  0
184188  4  0  0  0  0
187188  4  0  0  0  0
187189  4  0  0  0  0
189190  1  0  0  0  0
190191  4  0  0  0  0
191192  1  0  0  0  0
191193  4  0  0  0  0
193194  4  0  0  0  0
194195  1  0  0  0  0
194196  4  0  0  0  0
190197  4  0  0  0  0
196197  4  0  0  0  0
197198  1  0  0  0  0
189199  4  0  0  0  0
199200  4  0  0  0  0
200201  2  0  0  0  0
162202  4  0  0  0  0
201202  4  0  0  0  0
161203  1  0  0  0  0
199203  4  0  0  0  0
202203  4  0  0  0  0
164204  1  0  0  0  0
165205  1  0  0  0  0
171206  1  0  0  0  0
171207  1  0  0  0  0
171208  1  0  0  0  0
172209  1  0  0  0  0
174210  1  0  0  0  0
174211  1  0  0  0  0
174212  1  0  0  0  0
175213  1  0  0  0  0
177214  1  0  0  0  0
177215  1  0  0  0  0
177216  1  0  0  0  0
179217  1  0  0  0  0
180218  1  0  0  0  0
185219  1  0  0  0  0
186220  1  0  0  0  0
192221  1  0  0  0  0
192222  1  0  0  0  0
192223  1  0  0  0  0
193224  1  0  0  0  0
195225  1  0  0  0  0
195226  1  0  0  0  0
195227  1  0  0  0  0
196228  1  0  0  0  0
198229  1  0  0  0  0
198230  1  0  0  0  0
198231  1  0  0  0  0
200232  1  0  0  0  0
201233  1  0  0  0  0
156235  4  0  0  0  0
235236  4  0  0  0  0
236237  4  0  0  0  0
237238  2  0  0  0  0
238239  4  0  0  0  0
234240  1  0  0  0  0
236240  4  0  0  0  0
239240  4  0  0  0  0
239241  4  0  0  0  0
241242  1  0  0  0  0
242243  4  0  0  0  0
243244  1  0  0  0  0
243245  4  0  0  0  0
245246  4  0  0  0  0
246247  1  0  0  0  0
246248  4  0  0  0  0
242249  4  0  0  0  0
248249  4  0  0  0  0
249250  1  0  0  0  0
241251  4  0  0  0  0
251252  4  0  0  0  0
252253  2  0  0  0  0
234254  1  0  0  0  0
251254  4  0  0  0  0
253255  4  0  0  0  0
254255  4  0  0  0  0
158256  4  0  0  0  0
255256  4  0  0  0  0
256257  4  0  0  0  0
257258  4  0  0  0  0
258259  2  0  0  0  0
259260  4  0  0  0  0
234261  1  0  0  0  0
257261  4  0  0  0  0
260261  4  0  0  0  0
260262  4  0  0  0  0
262263  1  0  0  0  0
263264  4  0  0  0  0
264265  1  0  0  0  0
264266  4  0  0  0  0
266267  4  0  0  0  0
267268  1  0  0  0  0
267269  4  0  0  0  0
263270  4  0  0  0  0
269270  4  0  0  0  0
270271  1  0  0  0  0
262272  4  0  0  0  0
272273  4  0  0  0  0
273274  2  0  0  0  0
235275  4  0  0  0  0
274275  4  0  0  0  0
234276  1  0  0  0  0
272276  4  0  0  0  0
275276  4  0  0  0  0
237277  1  0  0  0  0
238278  1  0  0  0  0
244279  1  0  0  0  0
244280  1  0  0  0  0
244281  1  0  0  0  0
245282  1  0  0  0  0
247283  1  0  0  0  0
247284  1  0  0  0  0
247285  1  0  0  0  0
248286  1  0  0  0  0
250287  1  0  0  0  0
250288  1  0  0  0  0
250289  1  0  0  0  0
252290  1  0  0  0  0
253291  1  0  0  0  0
258292  1  0  0  0  0
259293  1  0  0  0  0
265294  1  0  0  0  0
265295  1  0  0  0  0
265296  1  0  0  0  0
266297  1  0  0  0  0
268298  1  0  0  0  0
268299  1  0  0  0  0
268300  1  0  0  0  0
269301  1  0  0  0  0
271302  1  0  0  0  0
271303  1  0  0  0  0
271304  1  0  0  0  0
273305  1  0  0  0  0
274306  1  0  0  0  0
M  END
