 xtb: 6.5.1 (b24c23e)
          07302209113D

240279  0     0  0            999 V2000
   39.3856   -0.0028    0.0118 Cu  0  0  0  0  0  0  0  0  0  0  0  0
   35.9773   -0.0282   -0.0003 C   0  0  0  0  0  0  0  0  0  0  0  0
   36.6112   -1.2600   -0.0605 C   0  0  0  0  0  0  0  0  0  0  0  0
   35.9353   -2.5252   -0.0943 C   0  0  0  0  0  0  0  0  0  0  0  0
   36.8935   -3.4839   -0.1358 C   0  0  0  0  0  0  0  0  0  0  0  0
   38.1645   -2.8119   -0.1353 C   0  0  0  0  0  0  0  0  0  0  0  0
   37.9618   -1.4628   -0.0822 N   0  0  0  0  0  0  0  0  0  0  0  0
   39.4081   -3.4472   -0.1551 C   0  0  0  0  0  0  0  0  0  0  0  0
   40.6420   -2.7965   -0.1098 C   0  0  0  0  0  0  0  0  0  0  0  0
   41.9179   -3.4514   -0.1698 C   0  0  0  0  0  0  0  0  0  0  0  0
   42.8664   -2.4823   -0.1131 C   0  0  0  0  0  0  0  0  0  0  0  0
   40.8340   -1.4420   -0.0301 N   0  0  0  0  0  0  0  0  0  0  0  0
   42.1782   -1.2294   -0.0267 C   0  0  0  0  0  0  0  0  0  0  0  0
   42.8173    0.0220    0.0347 C   0  0  0  0  0  0  0  0  0  0  0  0
   42.1593    1.2639    0.0875 C   0  0  0  0  0  0  0  0  0  0  0  0
   42.8285    2.5296    0.1157 C   0  0  0  0  0  0  0  0  0  0  0  0
   41.8655    3.4855    0.1498 C   0  0  0  0  0  0  0  0  0  0  0  0
   40.5997    2.8087    0.1516 C   0  0  0  0  0  0  0  0  0  0  0  0
   39.3559    3.4420    0.1703 C   0  0  0  0  0  0  0  0  0  0  0  0
   39.3403    4.9255    0.2379 C   0  0  0  0  0  0  0  0  0  0  0  0
   38.7976    5.6741   -0.8072 C   0  0  0  0  0  0  0  0  0  0  0  0
   38.7800    7.0593   -0.7420 C   0  0  0  0  0  0  0  0  0  0  0  0
   39.2984    7.7124    0.3680 C   0  0  0  0  0  0  0  0  0  0  0  0
   39.8383    6.9744    1.4125 C   0  0  0  0  0  0  0  0  0  0  0  0
   39.8623    5.5892    1.3485 C   0  0  0  0  0  0  0  0  0  0  0  0
   38.1220    2.7886    0.1318 C   0  0  0  0  0  0  0  0  0  0  0  0
   36.8409    3.4379    0.1977 C   0  0  0  0  0  0  0  0  0  0  0  0
   35.8974    2.4651    0.1473 C   0  0  0  0  0  0  0  0  0  0  0  0
   36.5926    1.2131    0.0585 C   0  0  0  0  0  0  0  0  0  0  0  0
   37.9399    1.4378    0.0553 N   0  0  0  0  0  0  0  0  0  0  0  0
   40.8120    1.4556    0.1053 N   0  0  0  0  0  0  0  0  0  0  0  0
   39.4150   -4.9306   -0.2294 C   0  0  0  0  0  0  0  0  0  0  0  0
   38.8941   -5.5834   -1.3472 C   0  0  0  0  0  0  0  0  0  0  0  0
   38.8983   -6.9685   -1.4153 C   0  0  0  0  0  0  0  0  0  0  0  0
   39.4165   -7.7173   -0.3674 C   0  0  0  0  0  0  0  0  0  0  0  0
   39.9344   -7.0750    0.7489 C   0  0  0  0  0  0  0  0  0  0  0  0
   39.9371   -5.6898    0.8182 C   0  0  0  0  0  0  0  0  0  0  0  0
   34.8922   -0.0369    0.0105 H   0  0  0  0  0  0  0  0  0  0  0  0
   34.8638   -2.6496   -0.0807 H   0  0  0  0  0  0  0  0  0  0  0  0
   36.7593   -4.5535   -0.1532 H   0  0  0  0  0  0  0  0  0  0  0  0
   42.0645   -4.5159   -0.2566 H   0  0  0  0  0  0  0  0  0  0  0  0
   43.9385   -2.5954   -0.1341 H   0  0  0  0  0  0  0  0  0  0  0  0
   43.8987    2.6603    0.1034 H   0  0  0  0  0  0  0  0  0  0  0  0
   41.9962    4.5554    0.1607 H   0  0  0  0  0  0  0  0  0  0  0  0
   38.4022    5.1656   -1.6795 H   0  0  0  0  0  0  0  0  0  0  0  0
   38.3597    7.6312   -1.5619 H   0  0  0  0  0  0  0  0  0  0  0  0
   39.2813    8.7952    0.4189 H   0  0  0  0  0  0  0  0  0  0  0  0
   40.2417    7.4798    2.2830 H   0  0  0  0  0  0  0  0  0  0  0  0
   40.2732    5.0137    2.1706 H   0  0  0  0  0  0  0  0  0  0  0  0
   36.6901    4.5020    0.2840 H   0  0  0  0  0  0  0  0  0  0  0  0
   34.8243    2.5712    0.1738 H   0  0  0  0  0  0  0  0  0  0  0  0
   38.4984   -4.9993   -2.1708 H   0  0  0  0  0  0  0  0  0  0  0  0
   38.4952   -7.4654   -2.2909 H   0  0  0  0  0  0  0  0  0  0  0  0
   39.4164   -8.8001   -0.4207 H   0  0  0  0  0  0  0  0  0  0  0  0
   40.3374   -7.6555    1.5714 H   0  0  0  0  0  0  0  0  0  0  0  0
   40.3313   -5.1896    1.6959 H   0  0  0  0  0  0  0  0  0  0  0  0
   87.5434    0.0551    0.0174 Cu  0  0  0  0  0  0  0  0  0  0  0  0
   90.9518    0.0732    0.0018 C   0  0  0  0  0  0  0  0  0  0  0  0
   90.3206    1.3079   -0.0040 C   0  0  0  0  0  0  0  0  0  0  0  0
   90.9995    2.5719    0.0165 C   0  0  0  0  0  0  0  0  0  0  0  0
   90.0434    3.5336    0.0184 C   0  0  0  0  0  0  0  0  0  0  0  0
   88.7709    2.8651   -0.0088 C   0  0  0  0  0  0  0  0  0  0  0  0
   88.9704    1.5145   -0.0149 N   0  0  0  0  0  0  0  0  0  0  0  0
   87.5287    3.5035    0.0008 C   0  0  0  0  0  0  0  0  0  0  0  0
   86.2933    2.8543    0.0187 C   0  0  0  0  0  0  0  0  0  0  0  0
   85.0189    3.5141   -0.0118 C   0  0  0  0  0  0  0  0  0  0  0  0
   84.0683    2.5456    0.0031 C   0  0  0  0  0  0  0  0  0  0  0  0
   86.0983    1.4980    0.0393 N   0  0  0  0  0  0  0  0  0  0  0  0
   84.7536    1.2885    0.0344 C   0  0  0  0  0  0  0  0  0  0  0  0
   84.1116    0.0371    0.0419 C   0  0  0  0  0  0  0  0  0  0  0  0
   84.7668   -1.2074    0.0407 C   0  0  0  0  0  0  0  0  0  0  0  0
   84.0948   -2.4717    0.0151 C   0  0  0  0  0  0  0  0  0  0  0  0
   85.0556   -3.4303    0.0079 C   0  0  0  0  0  0  0  0  0  0  0  0
   86.3230   -2.7570    0.0376 C   0  0  0  0  0  0  0  0  0  0  0  0
   87.5653   -3.3934    0.0280 C   0  0  0  0  0  0  0  0  0  0  0  0
   87.5774   -4.8785    0.0326 C   0  0  0  0  0  0  0  0  0  0  0  0
   88.1171   -5.5834   -1.0439 C   0  0  0  0  0  0  0  0  0  0  0  0
   88.1314   -6.9702   -1.0374 C   0  0  0  0  0  0  0  0  0  0  0  0
   87.6125   -7.6685    0.0444 C   0  0  0  0  0  0  0  0  0  0  0  0
   87.0755   -6.9741    1.1199 C   0  0  0  0  0  0  0  0  0  0  0  0
   87.0549   -5.5874    1.1147 C   0  0  0  0  0  0  0  0  0  0  0  0
   88.8007   -2.7418    0.0159 C   0  0  0  0  0  0  0  0  0  0  0  0
   90.0804   -3.3962    0.0521 C   0  0  0  0  0  0  0  0  0  0  0  0
   91.0260   -2.4243    0.0419 C   0  0  0  0  0  0  0  0  0  0  0  0
   90.3336   -1.1681    0.0078 C   0  0  0  0  0  0  0  0  0  0  0  0
   88.9858   -1.3893   -0.0030 N   0  0  0  0  0  0  0  0  0  0  0  0
   86.1137   -1.4028    0.0493 N   0  0  0  0  0  0  0  0  0  0  0  0
   87.5252    4.9887   -0.0081 C   0  0  0  0  0  0  0  0  0  0  0  0
   88.0462    5.6890   -1.0967 C   0  0  0  0  0  0  0  0  0  0  0  0
   88.0453    7.0758   -1.1035 C   0  0  0  0  0  0  0  0  0  0  0  0
   87.5303    7.7788   -0.0228 C   0  0  0  0  0  0  0  0  0  0  0  0
   87.0122    7.0890    1.0648 C   0  0  0  0  0  0  0  0  0  0  0  0
   87.0062    5.7021    1.0728 C   0  0  0  0  0  0  0  0  0  0  0  0
   92.0369    0.0790    0.0113 H   0  0  0  0  0  0  0  0  0  0  0  0
   92.0712    2.6930    0.0340 H   0  0  0  0  0  0  0  0  0  0  0  0
   90.1801    4.6027    0.0475 H   0  0  0  0  0  0  0  0  0  0  0  0
   84.8748    4.5817   -0.0517 H   0  0  0  0  0  0  0  0  0  0  0  0
   82.9964    2.6619   -0.0123 H   0  0  0  0  0  0  0  0  0  0  0  0
   83.0242   -2.5993   -0.0019 H   0  0  0  0  0  0  0  0  0  0  0  0
   84.9224   -4.4994   -0.0268 H   0  0  0  0  0  0  0  0  0  0  0  0
   88.5129   -5.0394   -1.8944 H   0  0  0  0  0  0  0  0  0  0  0  0
   88.5494   -7.5079   -1.8813 H   0  0  0  0  0  0  0  0  0  0  0  0
   87.6270   -8.7525    0.0494 H   0  0  0  0  0  0  0  0  0  0  0  0
   86.6718   -7.5150    1.9687 H   0  0  0  0  0  0  0  0  0  0  0  0
   86.6463   -5.0462    1.9609 H   0  0  0  0  0  0  0  0  0  0  0  0
   90.2288   -4.4634    0.0926 H   0  0  0  0  0  0  0  0  0  0  0  0
   92.0990   -2.5338    0.0622 H   0  0  0  0  0  0  0  0  0  0  0  0
   88.4394    5.1410   -1.9458 H   0  0  0  0  0  0  0  0  0  0  0  0
   88.4484    7.6099   -1.9569 H   0  0  0  0  0  0  0  0  0  0  0  0
   87.5330    8.8629   -0.0282 H   0  0  0  0  0  0  0  0  0  0  0  0
   86.6117    7.6335    1.9127 H   0  0  0  0  0  0  0  0  0  0  0  0
   86.6120    5.1645    1.9280 H   0  0  0  0  0  0  0  0  0  0  0  0
   48.0209    0.0507    0.0313 C   0  0  0  0  0  0  0  0  0  0  0  0
   46.7925    0.0459    0.0324 C   0  0  0  0  0  0  0  0  0  0  0  0
   45.4475    0.0391    0.0333 C   0  0  0  0  0  0  0  0  0  0  0  0
   44.2235    0.0323    0.0327 C   0  0  0  0  0  0  0  0  0  0  0  0
   49.3658    0.0535    0.0300 C   0  0  0  0  0  0  0  0  0  0  0  0
   50.5901    0.0538    0.0291 C   0  0  0  0  0  0  0  0  0  0  0  0
   64.0788    0.0359    0.0217 C   0  0  0  0  0  0  0  0  0  0  0  0
   62.8500    0.0387    0.0209 C   0  0  0  0  0  0  0  0  0  0  0  0
   61.5053    0.0411    0.0203 C   0  0  0  0  0  0  0  0  0  0  0  0
   60.2808    0.0435    0.0199 C   0  0  0  0  0  0  0  0  0  0  0  0
   65.4236    0.0330    0.0228 C   0  0  0  0  0  0  0  0  0  0  0  0
   66.6480    0.0308    0.0239 C   0  0  0  0  0  0  0  0  0  0  0  0
   80.1364    0.0205    0.0403 C   0  0  0  0  0  0  0  0  0  0  0  0
   78.9080    0.0183    0.0402 C   0  0  0  0  0  0  0  0  0  0  0  0
   77.5631    0.0170    0.0393 C   0  0  0  0  0  0  0  0  0  0  0  0
   76.3388    0.0166    0.0377 C   0  0  0  0  0  0  0  0  0  0  0  0
   81.4814    0.0248    0.0404 C   0  0  0  0  0  0  0  0  0  0  0  0
   82.7054    0.0300    0.0397 C   0  0  0  0  0  0  0  0  0  0  0  0
   55.4353    0.0492    0.0226 Cu  0  0  0  0  0  0  0  0  0  0  0  0
   51.9955    0.0530    0.0270 C   0  0  0  0  0  0  0  0  0  0  0  0
   52.6443   -1.1954    0.0294 C   0  0  0  0  0  0  0  0  0  0  0  0
   51.9671   -2.4557    0.0821 C   0  0  0  0  0  0  0  0  0  0  0  0
   52.9233   -3.4190    0.0609 C   0  0  0  0  0  0  0  0  0  0  0  0
   54.1916   -2.7515   -0.0136 C   0  0  0  0  0  0  0  0  0  0  0  0
   53.9888   -1.3969   -0.0240 N   0  0  0  0  0  0  0  0  0  0  0  0
   55.4313   -3.3929   -0.0509 C   0  0  0  0  0  0  0  0  0  0  0  0
   56.6725   -2.7534   -0.0603 C   0  0  0  0  0  0  0  0  0  0  0  0
   57.9392   -3.4201   -0.1622 C   0  0  0  0  0  0  0  0  0  0  0  0
   58.8977   -2.4590   -0.1416 C   0  0  0  0  0  0  0  0  0  0  0  0
   56.8786   -1.4009    0.0079 N   0  0  0  0  0  0  0  0  0  0  0  0
   58.2235   -1.2004   -0.0359 C   0  0  0  0  0  0  0  0  0  0  0  0
   58.8755    0.0454    0.0200 C   0  0  0  0  0  0  0  0  0  0  0  0
   58.2264    1.2926    0.0760 C   0  0  0  0  0  0  0  0  0  0  0  0
   58.9036    2.5498    0.1793 C   0  0  0  0  0  0  0  0  0  0  0  0
   57.9472    3.5131    0.2003 C   0  0  0  0  0  0  0  0  0  0  0  0
   56.6789    2.8491    0.1017 C   0  0  0  0  0  0  0  0  0  0  0  0
   55.4391    3.4912    0.0948 C   0  0  0  0  0  0  0  0  0  0  0  0
   55.4399    4.9759    0.1257 C   0  0  0  0  0  0  0  0  0  0  0  0
   54.8703    5.6608    1.1998 C   0  0  0  0  0  0  0  0  0  0  0  0
   54.8730    7.0473    1.2277 C   0  0  0  0  0  0  0  0  0  0  0  0
   55.4380    7.7655    0.1827 C   0  0  0  0  0  0  0  0  0  0  0  0
   56.0042    7.0912   -0.8907 C   0  0  0  0  0  0  0  0  0  0  0  0
   56.0088    5.7047   -0.9193 C   0  0  0  0  0  0  0  0  0  0  0  0
   54.1978    2.8526    0.0611 C   0  0  0  0  0  0  0  0  0  0  0  0
   52.9309    3.5230   -0.0098 C   0  0  0  0  0  0  0  0  0  0  0  0
   51.9724    2.5618   -0.0282 C   0  0  0  0  0  0  0  0  0  0  0  0
   52.6470    1.2999    0.0226 C   0  0  0  0  0  0  0  0  0  0  0  0
   53.9920    1.4985    0.0723 N   0  0  0  0  0  0  0  0  0  0  0  0
   56.8819    1.4960    0.0343 N   0  0  0  0  0  0  0  0  0  0  0  0
   55.4288   -4.8775   -0.0828 C   0  0  0  0  0  0  0  0  0  0  0  0
   54.8530   -5.5605   -1.1547 C   0  0  0  0  0  0  0  0  0  0  0  0
   54.8530   -6.9470   -1.1838 C   0  0  0  0  0  0  0  0  0  0  0  0
   55.4218   -7.6671   -0.1420 C   0  0  0  0  0  0  0  0  0  0  0  0
   55.9942   -6.9947    0.9292 C   0  0  0  0  0  0  0  0  0  0  0  0
   56.0013   -5.6082    0.9591 C   0  0  0  0  0  0  0  0  0  0  0  0
   50.8972   -2.5780    0.1367 H   0  0  0  0  0  0  0  0  0  0  0  0
   52.7861   -4.4873    0.1055 H   0  0  0  0  0  0  0  0  0  0  0  0
   58.0738   -4.4859   -0.2521 H   0  0  0  0  0  0  0  0  0  0  0  0
   59.9674   -2.5815   -0.2006 H   0  0  0  0  0  0  0  0  0  0  0  0
   59.9737    2.6700    0.2361 H   0  0  0  0  0  0  0  0  0  0  0  0
   58.0843    4.5787    0.2885 H   0  0  0  0  0  0  0  0  0  0  0  0
   54.4384    5.1008    2.0219 H   0  0  0  0  0  0  0  0  0  0  0  0
   54.4322    7.5692    2.0699 H   0  0  0  0  0  0  0  0  0  0  0  0
   55.4370    8.8494    0.2046 H   0  0  0  0  0  0  0  0  0  0  0  0
   56.4440    7.6477   -1.7109 H   0  0  0  0  0  0  0  0  0  0  0  0
   56.4412    5.1793   -1.7637 H   0  0  0  0  0  0  0  0  0  0  0  0
   52.7960    4.5916   -0.0540 H   0  0  0  0  0  0  0  0  0  0  0  0
   50.9026    2.6864   -0.0799 H   0  0  0  0  0  0  0  0  0  0  0  0
   54.4182   -4.9991   -1.9743 H   0  0  0  0  0  0  0  0  0  0  0  0
   54.4073   -7.4675   -2.0242 H   0  0  0  0  0  0  0  0  0  0  0  0
   55.4189   -8.7509   -0.1649 H   0  0  0  0  0  0  0  0  0  0  0  0
   56.4370   -7.5526    1.7469 H   0  0  0  0  0  0  0  0  0  0  0  0
   56.4384   -5.0843    1.8019 H   0  0  0  0  0  0  0  0  0  0  0  0
   71.4935    0.0235    0.0313 Cu  0  0  0  0  0  0  0  0  0  0  0  0
   68.0534    0.0286    0.0258 C   0  0  0  0  0  0  0  0  0  0  0  0
   68.7020   -1.2201    0.0298 C   0  0  0  0  0  0  0  0  0  0  0  0
   68.0244   -2.4804    0.0795 C   0  0  0  0  0  0  0  0  0  0  0  0
   68.9804   -3.4440    0.0610 C   0  0  0  0  0  0  0  0  0  0  0  0
   70.2491   -2.7768   -0.0086 C   0  0  0  0  0  0  0  0  0  0  0  0
   70.0466   -1.4221   -0.0192 N   0  0  0  0  0  0  0  0  0  0  0  0
   71.4887   -3.4185   -0.0414 C   0  0  0  0  0  0  0  0  0  0  0  0
   72.7302   -2.7795   -0.0478 C   0  0  0  0  0  0  0  0  0  0  0  0
   73.9969   -3.4467   -0.1464 C   0  0  0  0  0  0  0  0  0  0  0  0
   74.9557   -2.4859   -0.1243 C   0  0  0  0  0  0  0  0  0  0  0  0
   72.9364   -1.4271    0.0204 N   0  0  0  0  0  0  0  0  0  0  0  0
   74.2815   -1.2271   -0.0206 C   0  0  0  0  0  0  0  0  0  0  0  0
   74.9334    0.0183    0.0365 C   0  0  0  0  0  0  0  0  0  0  0  0
   74.2849    1.2657    0.0922 C   0  0  0  0  0  0  0  0  0  0  0  0
   74.9625    2.5224    0.1990 C   0  0  0  0  0  0  0  0  0  0  0  0
   74.0066    3.4860    0.2188 C   0  0  0  0  0  0  0  0  0  0  0  0
   72.7382    2.8227    0.1153 C   0  0  0  0  0  0  0  0  0  0  0  0
   71.4987    3.4656    0.1047 C   0  0  0  0  0  0  0  0  0  0  0  0
   71.5016    4.9502    0.1366 C   0  0  0  0  0  0  0  0  0  0  0  0
   70.9288    5.6356    1.2085 C   0  0  0  0  0  0  0  0  0  0  0  0
   70.9367    7.0221    1.2385 C   0  0  0  0  0  0  0  0  0  0  0  0
   71.5103    7.7397    0.1977 C   0  0  0  0  0  0  0  0  0  0  0  0
   72.0794    7.0648   -0.8738 C   0  0  0  0  0  0  0  0  0  0  0  0
   72.0786    5.6784   -0.9045 C   0  0  0  0  0  0  0  0  0  0  0  0
   70.2572    2.8275    0.0669 C   0  0  0  0  0  0  0  0  0  0  0  0
   68.9908    3.4983   -0.0076 C   0  0  0  0  0  0  0  0  0  0  0  0
   68.0320    2.5375   -0.0291 C   0  0  0  0  0  0  0  0  0  0  0  0
   68.7058    1.2753    0.0235 C   0  0  0  0  0  0  0  0  0  0  0  0
   70.0507    1.4733    0.0771 N   0  0  0  0  0  0  0  0  0  0  0  0
   72.9406    1.4698    0.0470 N   0  0  0  0  0  0  0  0  0  0  0  0
   71.4874   -4.9032   -0.0723 C   0  0  0  0  0  0  0  0  0  0  0  0
   70.9193   -5.5878   -1.1473 C   0  0  0  0  0  0  0  0  0  0  0  0
   70.9232   -6.9743   -1.1761 C   0  0  0  0  0  0  0  0  0  0  0  0
   71.4878   -7.6927   -0.1309 C   0  0  0  0  0  0  0  0  0  0  0  0
   72.0521   -7.0187    0.9436 C   0  0  0  0  0  0  0  0  0  0  0  0
   72.0555   -5.6322    0.9731 C   0  0  0  0  0  0  0  0  0  0  0  0
   66.9542   -2.6025    0.1303 H   0  0  0  0  0  0  0  0  0  0  0  0
   68.8430   -4.5123    0.1043 H   0  0  0  0  0  0  0  0  0  0  0  0
   74.1314   -4.5126   -0.2352 H   0  0  0  0  0  0  0  0  0  0  0  0
   76.0255   -2.6086   -0.1809 H   0  0  0  0  0  0  0  0  0  0  0  0
   76.0325    2.6419    0.2593 H   0  0  0  0  0  0  0  0  0  0  0  0
   74.1441    4.5514    0.3093 H   0  0  0  0  0  0  0  0  0  0  0  0
   70.4908    5.0761    2.0277 H   0  0  0  0  0  0  0  0  0  0  0  0
   70.4936    7.5445    2.0792 H   0  0  0  0  0  0  0  0  0  0  0  0
   71.5139    8.8235    0.2216 H   0  0  0  0  0  0  0  0  0  0  0  0
   72.5260    7.6208   -1.6907 H   0  0  0  0  0  0  0  0  0  0  0  0
   72.5136    5.1526   -1.7473 H   0  0  0  0  0  0  0  0  0  0  0  0
   68.8567    4.5670   -0.0520 H   0  0  0  0  0  0  0  0  0  0  0  0
   66.9624    2.6628   -0.0838 H   0  0  0  0  0  0  0  0  0  0  0  0
   70.4881   -5.0276   -1.9696 H   0  0  0  0  0  0  0  0  0  0  0  0
   70.4840   -7.4961   -2.0191 H   0  0  0  0  0  0  0  0  0  0  0  0
   71.4881   -8.7766   -0.1538 H   0  0  0  0  0  0  0  0  0  0  0  0
   72.4916   -7.5754    1.7639 H   0  0  0  0  0  0  0  0  0  0  0  0
   72.4869   -5.1070    1.8180 H   0  0  0  0  0  0  0  0  0  0  0  0
  2  3  4  0  0  0  0
  3  4  1  0  0  0  0
  4  5  2  0  0  0  0
  5  6  4  0  0  0  0
  1  7  1  0  0  0  0
  3  7  4  0  0  0  0
  6  7  4  0  0  0  0
  6  8  4  0  0  0  0
  8  9  4  0  0  0  0
  9 10  4  0  0  0  0
 10 11  2  0  0  0  0
  1 12  1  0  0  0  0
  9 12  4  0  0  0  0
 11 13  4  0  0  0  0
 12 13  4  0  0  0  0
 13 14  4  0  0  0  0
 14 15  4  0  0  0  0
 15 16  4  0  0  0  0
 16 17  2  0  0  0  0
 17 18  4  0  0  0  0
 18 19  4  0  0  0  0
 19 20  1  0  0  0  0
 20 21  4  0  0  0  0
 21 22  4  0  0  0  0
 22 23  4  0  0  0  0
 23 24  4  0  0  0  0
 20 25  4  0  0  0  0
 24 25  4  0  0  0  0
 19 26  4  0  0  0  0
 26 27  4  0  0  0  0
 27 28  2  0  0  0  0
  2 29  4  0  0  0  0
 28 29  1  0  0  0  0
  1 30  1  0  0  0  0
 26 30  4  0  0  0  0
 29 30  4  0  0  0  0
  1 31  1  0  0  0  0
 15 31  4  0  0  0  0
 18 31  4  0  0  0  0
  8 32  1  0  0  0  0
 32 33  4  0  0  0  0
 33 34  4  0  0  0  0
 34 35  4  0  0  0  0
 35 36  4  0  0  0  0
 32 37  4  0  0  0  0
 36 37  4  0  0  0  0
  2 38  1  0  0  0  0
  4 39  1  0  0  0  0
  5 40  1  0  0  0  0
 10 41  1  0  0  0  0
 11 42  1  0  0  0  0
 16 43  1  0  0  0  0
 17 44  1  0  0  0  0
 21 45  1  0  0  0  0
 22 46  1  0  0  0  0
 23 47  1  0  0  0  0
 24 48  1  0  0  0  0
 25 49  1  0  0  0  0
 27 50  1  0  0  0  0
 28 51  1  0  0  0  0
 33 52  1  0  0  0  0
 34 53  1  0  0  0  0
 35 54  1  0  0  0  0
 36 55  1  0  0  0  0
 37 56  1  0  0  0  0
 58 59  4  0  0  0  0
 59 60  1  0  0  0  0
 60 61  2  0  0  0  0
 61 62  4  0  0  0  0
 57 63  1  0  0  0  0
 59 63  4  0  0  0  0
 62 63  4  0  0  0  0
 62 64  4  0  0  0  0
 64 65  4  0  0  0  0
 65 66  4  0  0  0  0
 66 67  2  0  0  0  0
 57 68  1  0  0  0  0
 65 68  4  0  0  0  0
 67 69  4  0  0  0  0
 68 69  4  0  0  0  0
 69 70  4  0  0  0  0
 70 71  4  0  0  0  0
 71 72  4  0  0  0  0
 72 73  2  0  0  0  0
 73 74  4  0  0  0  0
 74 75  4  0  0  0  0
 75 76  1  0  0  0  0
 76 77  4  0  0  0  0
 77 78  4  0  0  0  0
 78 79  4  0  0  0  0
 79 80  4  0  0  0  0
 76 81  4  0  0  0  0
 80 81  4  0  0  0  0
 75 82  4  0  0  0  0
 82 83  4  0  0  0  0
 83 84  2  0  0  0  0
 58 85  4  0  0  0  0
 84 85  1  0  0  0  0
 57 86  1  0  0  0  0
 82 86  4  0  0  0  0
 85 86  4  0  0  0  0
 57 87  1  0  0  0  0
 71 87  4  0  0  0  0
 74 87  4  0  0  0  0
 64 88  1  0  0  0  0
 88 89  4  0  0  0  0
 89 90  4  0  0  0  0
 90 91  4  0  0  0  0
 91 92  4  0  0  0  0
 88 93  4  0  0  0  0
 92 93  4  0  0  0  0
 58 94  1  0  0  0  0
 60 95  1  0  0  0  0
 61 96  1  0  0  0  0
 66 97  1  0  0  0  0
 67 98  1  0  0  0  0
 72 99  1  0  0  0  0
 73100  1  0  0  0  0
 77101  1  0  0  0  0
 78102  1  0  0  0  0
 79103  1  0  0  0  0
 80104  1  0  0  0  0
 81105  1  0  0  0  0
 83106  1  0  0  0  0
 84107  1  0  0  0  0
 89108  1  0  0  0  0
 90109  1  0  0  0  0
 91110  1  0  0  0  0
 92111  1  0  0  0  0
 93112  1  0  0  0  0
113114  3  0  0  0  0
114115  4  0  0  0  0
 14116  4  0  0  0  0
115116  3  0  0  0  0
113117  4  0  0  0  0
117118  3  0  0  0  0
119120  3  0  0  0  0
120121  4  0  0  0  0
121122  3  0  0  0  0
119123  4  0  0  0  0
123124  3  0  0  0  0
125126  3  0  0  0  0
126127  4  0  0  0  0
127128  3  0  0  0  0
125129  4  0  0  0  0
 70130  4  0  0  0  0
129130  3  0  0  0  0
118132  4  0  0  0  0
132133  4  0  0  0  0
133134  4  0  0  0  0
134135  2  0  0  0  0
135136  4  0  0  0  0
131137  1  0  0  0  0
133137  4  0  0  0  0
136137  4  0  0  0  0
136138  4  0  0  0  0
138139  4  0  0  0  0
139140  4  0  0  0  0
140141  2  0  0  0  0
131142  1  0  0  0  0
139142  4  0  0  0  0
141143  4  0  0  0  0
142143  4  0  0  0  0
122144  4  0  0  0  0
143144  4  0  0  0  0
144145  4  0  0  0  0
145146  4  0  0  0  0
146147  2  0  0  0  0
147148  4  0  0  0  0
148149  4  0  0  0  0
149150  1  0  0  0  0
150151  4  0  0  0  0
151152  4  0  0  0  0
152153  4  0  0  0  0
153154  4  0  0  0  0
150155  4  0  0  0  0
154155  4  0  0  0  0
149156  4  0  0  0  0
156157  4  0  0  0  0
157158  2  0  0  0  0
132159  4  0  0  0  0
158159  4  0  0  0  0
131160  1  0  0  0  0
156160  4  0  0  0  0
159160  4  0  0  0  0
131161  1  0  0  0  0
145161  4  0  0  0  0
148161  4  0  0  0  0
138162  1  0  0  0  0
162163  4  0  0  0  0
163164  4  0  0  0  0
164165  4  0  0  0  0
165166  4  0  0  0  0
162167  4  0  0  0  0
166167  4  0  0  0  0
134168  1  0  0  0  0
135169  1  0  0  0  0
140170  1  0  0  0  0
141171  1  0  0  0  0
146172  1  0  0  0  0
147173  1  0  0  0  0
151174  1  0  0  0  0
152175  1  0  0  0  0
153176  1  0  0  0  0
154177  1  0  0  0  0
155178  1  0  0  0  0
157179  1  0  0  0  0
158180  1  0  0  0  0
163181  1  0  0  0  0
164182  1  0  0  0  0
165183  1  0  0  0  0
166184  1  0  0  0  0
167185  1  0  0  0  0
124187  4  0  0  0  0
187188  4  0  0  0  0
188189  4  0  0  0  0
189190  2  0  0  0  0
190191  4  0  0  0  0
186192  1  0  0  0  0
188192  4  0  0  0  0
191192  4  0  0  0  0
191193  4  0  0  0  0
193194  4  0  0  0  0
194195  4  0  0  0  0
195196  2  0  0  0  0
186197  1  0  0  0  0
194197  4  0  0  0  0
196198  4  0  0  0  0
197198  4  0  0  0  0
128199  4  0  0  0  0
198199  4  0  0  0  0
199200  4  0  0  0  0
200201  4  0  0  0  0
201202  2  0  0  0  0
202203  4  0  0  0  0
203204  4  0  0  0  0
204205  1  0  0  0  0
205206  4  0  0  0  0
206207  4  0  0  0  0
207208  4  0  0  0  0
208209  4  0  0  0  0
205210  4  0  0  0  0
209210  4  0  0  0  0
204211  4  0  0  0  0
211212  4  0  0  0  0
212213  2  0  0  0  0
187214  4  0  0  0  0
213214  4  0  0  0  0
186215  1  0  0  0  0
211215  4  0  0  0  0
214215  4  0  0  0  0
186216  1  0  0  0  0
200216  4  0  0  0  0
203216  4  0  0  0  0
193217  1  0  0  0  0
217218  4  0  0  0  0
218219  4  0  0  0  0
219220  4  0  0  0  0
220221  4  0  0  0  0
217222  4  0  0  0  0
221222  4  0  0  0  0
189223  1  0  0  0  0
190224  1  0  0  0  0
195225  1  0  0  0  0
196226  1  0  0  0  0
201227  1  0  0  0  0
202228  1  0  0  0  0
206229  1  0  0  0  0
207230  1  0  0  0  0
208231  1  0  0  0  0
209232  1  0  0  0  0
210233  1  0  0  0  0
212234  1  0  0  0  0
213235  1  0  0  0  0
218236  1  0  0  0  0
219237  1  0  0  0  0
220238  1  0  0  0  0
221239  1  0  0  0  0
222240  1  0  0  0  0
M  END
