276

Co 50.607343 -0.028465 -0.029874
C 47.248655 0.174796 -0.265185
C 47.912974 1.275632 0.096291
C 47.263325 2.519121 0.493736
C 48.206039 3.394960 0.783889
C 49.511761 2.754193 0.576577
N 49.332595 1.405636 0.143504
C 50.706933 3.349701 0.762850
C 52.002250 2.658240 0.535029
C 53.299020 3.344882 0.535926
C 54.232203 2.441914 0.318858
N 52.135120 1.383991 0.323083
C 53.538577 1.166911 0.175566
C 54.130166 -0.023201 -0.023422
C 53.371598 -1.289675 -0.164530
C 53.928786 -2.494200 -0.148215
C 52.881550 -3.459783 -0.408191
C 51.747382 -2.785452 -0.562993
C 50.445429 -3.410001 -0.921626
C 50.420363 -4.851795 -1.256192
C 50.353886 -5.264847 -2.594452
C 50.349244 -6.630757 -2.913956
C 50.243463 -7.070627 -4.344282
C 50.377050 -7.582794 -1.883001
C 50.434114 -7.177702 -0.541160
C 50.500859 -8.208289 0.547370
C 50.465652 -5.809306 -0.232690
C 49.292285 -2.715601 -0.935484
C 47.971614 -3.256043 -1.254007
C 47.116360 -2.271538 -1.064569
C 47.880043 -1.103599 -0.628964
N 49.150262 -1.350591 -0.549796
N 51.967601 -1.380237 -0.416011
C 50.756466 4.759966 1.207550
C 50.440982 5.795457 0.315770
C 50.483968 7.131732 0.739058
C 50.163823 8.240748 -0.219484
C 50.884604 7.429843 2.050085
C 51.225632 6.401286 2.941131
C 51.607964 6.722056 4.355792
C 51.144517 5.066399 2.519113
H 46.165704 0.211775 -0.283464
H 46.198711 2.705674 0.553113
H 48.020106 4.407645 1.116518
H 53.478945 4.401791 0.682389
H 55.294441 2.639428 0.264117
H 54.974426 -2.725663 0.001969
H 53.017113 -4.529469 -0.494635
H 50.309802 -4.523439 -3.384258
H 50.745961 -8.050390 -4.491839
H 49.173142 -7.167082 -4.621808
H 50.727986 -6.331972 -5.018414
H 50.355914 -8.639259 -2.124496
H 50.332295 -7.753069 1.547687
H 49.722089 -8.983225 0.383894
H 51.500037 -8.692329 0.538195
H 50.522419 -5.485590 0.800732
H 47.717764 -4.259397 -1.569105
H 46.044761 -2.333050 -1.201738
H 50.156956 5.559953 -0.703263
H 49.674921 9.084601 0.312549
H 49.472632 7.888860 -1.014427
H 51.101104 8.604414 -0.689420
H 50.930420 8.462659 2.376163
H 50.698502 6.729287 4.990805
H 52.098092 7.716944 4.414342
H 52.319286 5.964850 4.750605
H 51.386579 4.265455 3.208027
Co 82.613522 -0.015537 -0.020161
C 85.972211 0.153892 -0.280890
C 85.307891 -0.499729 -1.237595
C 85.957541 -1.227607 -2.321302
C 85.014826 -1.750093 -3.081757
C 83.709105 -1.372609 -2.524024
N 83.888270 -0.581264 -1.349319
C 82.513932 -1.717287 -3.044143
C 81.218616 -1.305993 -2.443428
C 79.921845 -1.497990 -3.102682
C 78.988662 -1.038149 -2.295827
N 81.085745 -0.747720 -1.278541
C 79.682288 -0.545607 -1.111104
C 79.090699 -0.023201 -0.023422
C 79.849268 0.464871 1.153717
C 79.292079 0.784496 2.315176
C 80.339315 1.302979 3.170228
C 81.473484 1.263954 2.479457
C 82.775437 1.782264 2.979492
C 82.800503 2.504948 4.271169
C 82.866979 3.905293 4.295373
C 82.871621 4.592388 5.518358
C 82.977403 6.088626 5.542693
C 82.843815 3.867193 6.719747
C 82.786752 2.465625 6.704185
C 82.720007 1.706994 7.997046
C 82.755214 1.788435 5.475741
C 83.928581 1.602279 2.308680
C 85.249251 2.058651 2.739096
C 86.104505 1.602651 1.846235
C 85.340822 0.859151 0.845714
N 84.070604 0.851866 1.104982
N 81.253264 0.731621 1.170697
C 82.464400 -2.536977 -4.274880
C 82.779883 -1.968686 -5.517683
C 82.736898 -2.747213 -6.683316
C 83.057042 -2.135266 -8.015322
C 82.336261 -4.089407 -6.604702
C 81.995233 -4.658922 -5.368763
C 81.612902 -6.106961 -5.283067
C 82.076349 -3.882001 -4.204112
H 87.055162 0.161155 -0.321496
H 87.022155 -1.336566 -2.483954
H 85.200759 -2.351470 -3.961825
H 79.741921 -1.932869 -4.077048
H 77.926424 -1.040552 -2.500772
H 78.246440 0.704679 2.579296
H 80.203753 1.683767 4.173572
H 82.911064 4.457502 3.363416
H 82.474904 6.503081 6.442657
H 84.047724 6.382032 5.558083
H 82.492879 6.530499 4.645580
H 82.864951 4.393224 7.667233
H 82.888570 0.619498 7.838270
H 83.498777 2.079724 8.695847
H 81.720828 1.850546 8.459400
H 82.698447 0.705748 5.452486
H 85.503102 2.640592 3.615082
H 87.176105 1.751521 1.867133
H 83.063909 -0.924373 -5.575149
H 83.545945 -2.881168 -8.677724
H 83.748234 -1.273790 -7.898624
H 82.119761 -1.785136 -8.495427
H 82.290445 -4.690094 -7.505929
H 82.522363 -6.718888 -5.113247
H 81.122774 -6.440137 -6.222334
H 80.901579 -6.275390 -4.445887
H 81.834286 -4.320733 -3.243056
C 55.842110 -0.023201 -0.023422
C 57.064028 -0.023201 -0.023422
C 65.999474 -0.023201 -0.023422
C 67.221392 -0.023201 -0.023422
C 76.156838 -0.023201 -0.023422
C 77.378755 -0.023201 -0.023422
Co 61.424639 -0.069320 -0.030369
C 58.055277 0.024586 0.024820
C 58.711545 1.195506 -0.073845
C 58.071580 2.512550 -0.088746
C 59.007743 3.426137 -0.250325
C 60.304184 2.747707 -0.350398
N 60.126003 1.334462 -0.229291
C 61.488233 3.367624 -0.540784
C 62.785555 2.645003 -0.575970
C 64.054531 3.262193 -0.983165
C 65.007268 2.365699 -0.828368
N 62.953521 1.417395 -0.194180
C 64.352156 1.164255 -0.327436
C 64.967087 0.024586 0.024820
C 64.215907 -1.159367 0.492642
C 64.750407 -2.171781 1.163469
C 63.717992 -3.179548 1.313421
C 62.624364 -2.714940 0.719822
C 61.371387 -3.487535 0.543372
C 61.434721 -4.967103 0.629373
C 60.737047 -5.651749 1.636508
C 60.812726 -7.048851 1.728909
C 60.102647 -7.768254 2.836938
C 61.618108 -7.759323 0.826155
C 62.313317 -7.085320 -0.188744
C 63.197865 -7.849775 -1.128581
C 62.230444 -5.687798 -0.273280
C 60.199482 -2.875150 0.287014
C 58.924671 -3.535013 0.024731
C 58.036408 -2.572501 -0.118169
C 58.732977 -1.292066 0.045574
N 59.997268 -1.462051 0.279427
N 62.848395 -1.415746 0.175699
C 61.522630 4.838543 -0.713781
C 62.110004 5.647326 0.269876
C 62.158457 7.039544 0.108084
C 62.830215 7.894657 1.141650
C 61.639714 7.618607 -1.060091
C 61.039179 6.818984 -2.044216
C 60.517328 7.441639 -3.304584
C 60.997114 5.427510 -1.873792
H 57.017582 2.732179 0.015990
H 58.822448 4.491869 -0.289484
H 64.203842 4.270810 -1.345730
H 66.056871 2.520884 -1.040027
H 65.774296 -2.254934 1.503030
H 63.834473 -4.147518 1.783028
H 60.143155 -5.095179 2.352227
H 59.863788 -8.812314 2.540170
H 60.750654 -7.787386 3.737921
H 59.149756 -7.255568 3.087304
H 61.705481 -8.836178 0.913694
H 63.346710 -7.290194 -2.077275
H 62.740908 -8.831561 -1.377492
H 64.185886 -8.018760 -0.650352
H 62.783628 -5.158931 -1.040601
H 58.722041 -4.595059 -0.052150
H 56.986987 -2.725976 -0.330219
H 62.530828 5.190992 1.158540
H 62.396819 8.917467 1.147925
H 63.914923 7.962640 0.915951
H 62.696878 7.460032 2.155066
H 61.703104 8.690844 -1.203780
H 60.091086 8.445507 -3.094188
H 59.716148 6.815154 -3.752557
H 61.346278 7.545221 -4.035849
H 60.561429 4.800496 -2.643330
Co 71.582003 -0.069320 -0.030369
C 68.212640 0.024586 0.024820
C 68.868909 1.195506 -0.073845
C 68.228944 2.512550 -0.088746
C 69.165107 3.426137 -0.250325
C 70.461547 2.747707 -0.350398
N 70.283367 1.334462 -0.229291
C 71.645597 3.367624 -0.540784
C 72.942919 2.645003 -0.575970
C 74.211895 3.262193 -0.983165
C 75.164632 2.365699 -0.828368
N 73.110885 1.417395 -0.194180
C 74.509519 1.164255 -0.327436
C 75.124451 0.024586 0.024820
C 74.373271 -1.159367 0.492642
C 74.907771 -2.171781 1.163469
C 73.875356 -3.179548 1.313421
C 72.781727 -2.714940 0.719822
C 71.528751 -3.487535 0.543372
C 71.592085 -4.967103 0.629373
C 70.894411 -5.651749 1.636508
C 70.970090 -7.048851 1.728909
C 70.260011 -7.768254 2.836938
C 71.775471 -7.759323 0.826155
C 72.470681 -7.085320 -0.188744
C 73.355229 -7.849775 -1.128581
C 72.387808 -5.687798 -0.273280
C 70.356845 -2.875150 0.287014
C 69.082035 -3.535013 0.024731
C 68.193772 -2.572501 -0.118169
C 68.890341 -1.292066 0.045574
N 70.154632 -1.462051 0.279427
N 73.005759 -1.415746 0.175699
C 71.679994 4.838543 -0.713781
C 72.267368 5.647326 0.269876
C 72.315821 7.039544 0.108084
C 72.987579 7.894657 1.141650
C 71.797078 7.618607 -1.060091
C 71.196543 6.818984 -2.044216
C 70.674692 7.441639 -3.304584
C 71.154478 5.427510 -1.873792
H 67.174946 2.732179 0.015990
H 68.979812 4.491869 -0.289484
H 74.361206 4.270810 -1.345730
H 76.214235 2.520884 -1.040027
H 75.931660 -2.254934 1.503030
H 73.991837 -4.147518 1.783028
H 70.300519 -5.095179 2.352227
H 70.021152 -8.812314 2.540170
H 70.908018 -7.787386 3.737921
H 69.307120 -7.255568 3.087304
H 71.862845 -8.836178 0.913694
H 73.504073 -7.290194 -2.077275
H 72.898272 -8.831561 -1.377492
H 74.343250 -8.018760 -0.650352
H 72.940992 -5.158931 -1.040601
H 68.879405 -4.595059 -0.052150
H 67.144351 -2.725976 -0.330219
H 72.688192 5.190992 1.158540
H 72.554183 8.917467 1.147925
H 74.072287 7.962640 0.915951
H 72.854242 7.460032 2.155066
H 71.860468 8.690844 -1.203780
H 70.248450 8.445507 -3.094188
H 69.873511 6.815154 -3.752557
H 71.503642 7.545221 -4.035849
H 70.718793 4.800496 -2.643330
