 xtb: 6.5.1 (b24c23e)
          07302200063D

276315  0     0  0            999 V2000
   50.7685   -0.0415    0.2173 Co  0  0  0  0  0  0  0  0  0  0  0  0
   47.5507    0.2037   -0.6482 C   0  0  0  0  0  0  0  0  0  0  0  0
   48.1744    1.3310   -0.1518 C   0  0  0  0  0  0  0  0  0  0  0  0
   47.4999    2.5670    0.1061 C   0  0  0  0  0  0  0  0  0  0  0  0
   48.3774    3.3578    0.7697 C   0  0  0  0  0  0  0  0  0  0  0  0
   49.6129    2.6343    0.8468 C   0  0  0  0  0  0  0  0  0  0  0  0
   49.4649    1.3837    0.3064 N   0  0  0  0  0  0  0  0  0  0  0  0
   50.8163    3.1707    1.2924 C   0  0  0  0  0  0  0  0  0  0  0  0
   52.0213    2.5131    1.0884 C   0  0  0  0  0  0  0  0  0  0  0  0
   53.3022    3.1454    1.1893 C   0  0  0  0  0  0  0  0  0  0  0  0
   54.2124    2.2666    0.7013 C   0  0  0  0  0  0  0  0  0  0  0  0
   52.1611    1.2381    0.5943 N   0  0  0  0  0  0  0  0  0  0  0  0
   53.4956    1.0770    0.3657 C   0  0  0  0  0  0  0  0  0  0  0  0
   54.1151   -0.1300    0.0150 C   0  0  0  0  0  0  0  0  0  0  0  0
   53.4152   -1.3433    0.0744 C   0  0  0  0  0  0  0  0  0  0  0  0
   54.0480   -2.6234    0.1123 C   0  0  0  0  0  0  0  0  0  0  0  0
   53.0679   -3.5373    0.3190 C   0  0  0  0  0  0  0  0  0  0  0  0
   51.8301   -2.8172    0.3432 C   0  0  0  0  0  0  0  0  0  0  0  0
   50.5838   -3.4239    0.2846 C   0  0  0  0  0  0  0  0  0  0  0  0
   50.5096   -4.8970    0.4319 C   0  0  0  0  0  0  0  0  0  0  0  0
   50.1355   -5.7053   -0.6398 C   0  0  0  0  0  0  0  0  0  0  0  0
   50.0802   -7.0879   -0.4949 C   0  0  0  0  0  0  0  0  0  0  0  0
   49.6617   -7.9531   -1.6530 C   0  0  0  0  0  0  0  0  0  0  0  0
   50.3992   -7.6583    0.7332 C   0  0  0  0  0  0  0  0  0  0  0  0
   50.7826   -6.8642    1.8105 C   0  0  0  0  0  0  0  0  0  0  0  0
   51.1144   -7.4930    3.1367 C   0  0  0  0  0  0  0  0  0  0  0  0
   50.8396   -5.4840    1.6527 C   0  0  0  0  0  0  0  0  0  0  0  0
   49.4376   -2.7002   -0.0284 C   0  0  0  0  0  0  0  0  0  0  0  0
   48.1733   -3.2827   -0.3711 C   0  0  0  0  0  0  0  0  0  0  0  0
   47.3634   -2.2667   -0.7550 C   0  0  0  0  0  0  0  0  0  0  0  0
   48.1075   -1.0573   -0.5732 C   0  0  0  0  0  0  0  0  0  0  0  0
   49.3775   -1.3361   -0.1384 N   0  0  0  0  0  0  0  0  0  0  0  0
   52.0661   -1.4678    0.2196 N   0  0  0  0  0  0  0  0  0  0  0  0
   50.8471    4.5292    1.8846 C   0  0  0  0  0  0  0  0  0  0  0  0
   50.4710    5.6466    1.1399 C   0  0  0  0  0  0  0  0  0  0  0  0
   50.5104    6.9158    1.7056 C   0  0  0  0  0  0  0  0  0  0  0  0
   50.1267    8.1257    0.8970 C   0  0  0  0  0  0  0  0  0  0  0  0
   50.9279    7.0626    3.0259 C   0  0  0  0  0  0  0  0  0  0  0  0
   51.3134    5.9583    3.7785 C   0  0  0  0  0  0  0  0  0  0  0  0
   51.7478    6.1223    5.2099 C   0  0  0  0  0  0  0  0  0  0  0  0
   51.2754    4.6934    3.2003 C   0  0  0  0  0  0  0  0  0  0  0  0
   46.5266    0.2928   -0.9918 H   0  0  0  0  0  0  0  0  0  0  0  0
   46.4737    2.7704   -0.1562 H   0  0  0  0  0  0  0  0  0  0  0  0
   48.2167    4.3496    1.1600 H   0  0  0  0  0  0  0  0  0  0  0  0
   53.4665    4.1474    1.5515 H   0  0  0  0  0  0  0  0  0  0  0  0
   55.2797    2.3868    0.6087 H   0  0  0  0  0  0  0  0  0  0  0  0
   55.1103   -2.7856    0.0271 H   0  0  0  0  0  0  0  0  0  0  0  0
   53.1589   -4.6077    0.4077 H   0  0  0  0  0  0  0  0  0  0  0  0
   49.9109   -5.2523   -1.5991 H   0  0  0  0  0  0  0  0  0  0  0  0
   50.0925   -8.9510   -1.5693 H   0  0  0  0  0  0  0  0  0  0  0  0
   48.5738   -8.0520   -1.6676 H   0  0  0  0  0  0  0  0  0  0  0  0
   49.9738   -7.5114   -2.5997 H   0  0  0  0  0  0  0  0  0  0  0  0
   50.3567   -8.7363    0.8510 H   0  0  0  0  0  0  0  0  0  0  0  0
   51.7832   -6.8543    3.7138 H   0  0  0  0  0  0  0  0  0  0  0  0
   50.2002   -7.6408    3.7162 H   0  0  0  0  0  0  0  0  0  0  0  0
   51.5872   -8.4655    2.9971 H   0  0  0  0  0  0  0  0  0  0  0  0
   51.1328   -4.8526    2.4844 H   0  0  0  0  0  0  0  0  0  0  0  0
   47.9479   -4.3361   -0.3334 H   0  0  0  0  0  0  0  0  0  0  0  0
   46.3396   -2.3107   -1.0913 H   0  0  0  0  0  0  0  0  0  0  0  0
   50.1675    5.5228    0.1062 H   0  0  0  0  0  0  0  0  0  0  0  0
   49.5173    8.8079    1.4909 H   0  0  0  0  0  0  0  0  0  0  0  0
   49.5682    7.8391    0.0061 H   0  0  0  0  0  0  0  0  0  0  0  0
   51.0240    8.6628    0.5818 H   0  0  0  0  0  0  0  0  0  0  0  0
   50.9573    8.0522    3.4705 H   0  0  0  0  0  0  0  0  0  0  0  0
   50.8968    5.9630    5.8762 H   0  0  0  0  0  0  0  0  0  0  0  0
   52.1353    7.1257    5.3870 H   0  0  0  0  0  0  0  0  0  0  0  0
   52.5185    5.3951    5.4664 H   0  0  0  0  0  0  0  0  0  0  0  0
   51.5682    3.8230    3.7773 H   0  0  0  0  0  0  0  0  0  0  0  0
   82.4803    0.1754    0.0451 Co  0  0  0  0  0  0  0  0  0  0  0  0
   85.5847    1.4035   -0.0064 C   0  0  0  0  0  0  0  0  0  0  0  0
   84.9742    1.1410   -1.2174 C   0  0  0  0  0  0  0  0  0  0  0  0
   85.6263    1.2566   -2.4862 C   0  0  0  0  0  0  0  0  0  0  0  0
   84.7642    0.7729   -3.4130 C   0  0  0  0  0  0  0  0  0  0  0  0
   83.5538    0.4390   -2.7204 C   0  0  0  0  0  0  0  0  0  0  0  0
   83.7153    0.6238   -1.3709 N   0  0  0  0  0  0  0  0  0  0  0  0
   82.3462    0.1343   -3.3379 C   0  0  0  0  0  0  0  0  0  0  0  0
   81.1596    0.0846   -2.6168 C   0  0  0  0  0  0  0  0  0  0  0  0
   79.8577    0.1444   -3.2094 C   0  0  0  0  0  0  0  0  0  0  0  0
   78.9666    0.2341   -2.1910 C   0  0  0  0  0  0  0  0  0  0  0  0
   81.0572    0.1023   -1.2480 N   0  0  0  0  0  0  0  0  0  0  0  0
   79.7202    0.1639   -0.9786 C   0  0  0  0  0  0  0  0  0  0  0  0
   79.1436   -0.0434    0.2804 C   0  0  0  0  0  0  0  0  0  0  0  0
   79.9182   -0.4669    1.3688 C   0  0  0  0  0  0  0  0  0  0  0  0
   79.3787   -1.0402    2.5604 C   0  0  0  0  0  0  0  0  0  0  0  0
   80.4329   -1.3943    3.3363 C   0  0  0  0  0  0  0  0  0  0  0  0
   81.6147   -0.9771    2.6426 C   0  0  0  0  0  0  0  0  0  0  0  0
   82.8677   -0.8989    3.2323 C   0  0  0  0  0  0  0  0  0  0  0  0
   83.0525   -1.4821    4.5830 C   0  0  0  0  0  0  0  0  0  0  0  0
   83.2752   -0.6658    5.6897 C   0  0  0  0  0  0  0  0  0  0  0  0
   83.4445   -1.2223    6.9538 C   0  0  0  0  0  0  0  0  0  0  0  0
   83.6587   -0.3321    8.1480 C   0  0  0  0  0  0  0  0  0  0  0  0
   83.3903   -2.6042    7.1033 C   0  0  0  0  0  0  0  0  0  0  0  0
   83.1613   -3.4320    6.0074 C   0  0  0  0  0  0  0  0  0  0  0  0
   83.1224   -4.9261    6.1817 C   0  0  0  0  0  0  0  0  0  0  0  0
   82.9888   -2.8648    4.7499 C   0  0  0  0  0  0  0  0  0  0  0  0
   83.9079   -0.1919    2.6372 C   0  0  0  0  0  0  0  0  0  0  0  0
   85.1333    0.1667    3.2888 C   0  0  0  0  0  0  0  0  0  0  0  0
   85.8394    0.9210    2.4123 C   0  0  0  0  0  0  0  0  0  0  0  0
   85.0796    0.9603    1.1991 C   0  0  0  0  0  0  0  0  0  0  0  0
   83.8890    0.2980    1.3588 N   0  0  0  0  0  0  0  0  0  0  0  0
   81.2800   -0.4465    1.4179 N   0  0  0  0  0  0  0  0  0  0  0  0
   82.2807   -0.0296   -4.8086 C   0  0  0  0  0  0  0  0  0  0  0  0
   82.6449    1.0049   -5.6699 C   0  0  0  0  0  0  0  0  0  0  0  0
   82.5754    0.8322   -7.0474 C   0  0  0  0  0  0  0  0  0  0  0  0
   82.9512    1.9532   -7.9786 C   0  0  0  0  0  0  0  0  0  0  0  0
   82.1359   -0.3845   -7.5626 C   0  0  0  0  0  0  0  0  0  0  0  0
   81.7588   -1.4220   -6.7164 C   0  0  0  0  0  0  0  0  0  0  0  0
   81.2972   -2.7390   -7.2796 C   0  0  0  0  0  0  0  0  0  0  0  0
   81.8302   -1.2372   -5.3395 C   0  0  0  0  0  0  0  0  0  0  0  0
   86.5663    1.8631   -0.0143 H   0  0  0  0  0  0  0  0  0  0  0  0
   86.6300    1.6255   -2.6271 H   0  0  0  0  0  0  0  0  0  0  0  0
   84.9189    0.6666   -4.4744 H   0  0  0  0  0  0  0  0  0  0  0  0
   79.6643    0.1517   -4.2699 H   0  0  0  0  0  0  0  0  0  0  0  0
   77.8917    0.2995   -2.2429 H   0  0  0  0  0  0  0  0  0  0  0  0
   78.3268   -1.1738    2.7547 H   0  0  0  0  0  0  0  0  0  0  0  0
   80.4225   -1.8555    4.3106 H   0  0  0  0  0  0  0  0  0  0  0  0
   83.2960    0.4112    5.5652 H   0  0  0  0  0  0  0  0  0  0  0  0
   84.1916   -0.8614    8.9380 H   0  0  0  0  0  0  0  0  0  0  0  0
   84.2272    0.5564    7.8719 H   0  0  0  0  0  0  0  0  0  0  0  0
   82.6946   -0.0070    8.5458 H   0  0  0  0  0  0  0  0  0  0  0  0
   83.5243   -3.0431    8.0867 H   0  0  0  0  0  0  0  0  0  0  0  0
   82.5680   -5.3987    5.3709 H   0  0  0  0  0  0  0  0  0  0  0  0
   84.1388   -5.3267    6.1792 H   0  0  0  0  0  0  0  0  0  0  0  0
   82.6568   -5.1930    7.1309 H   0  0  0  0  0  0  0  0  0  0  0  0
   82.8157   -3.4975    3.8863 H   0  0  0  0  0  0  0  0  0  0  0  0
   85.4048   -0.1170    4.2926 H   0  0  0  0  0  0  0  0  0  0  0  0
   86.8078    1.3774    2.5431 H   0  0  0  0  0  0  0  0  0  0  0  0
   82.9618    1.9569   -5.2585 H   0  0  0  0  0  0  0  0  0  0  0  0
   83.5446    1.5771   -8.8130 H   0  0  0  0  0  0  0  0  0  0  0  0
   83.5240    2.7194   -7.4563 H   0  0  0  0  0  0  0  0  0  0  0  0
   82.0505    2.4164   -8.3874 H   0  0  0  0  0  0  0  0  0  0  0  0
   82.0821   -0.5220   -8.6377 H   0  0  0  0  0  0  0  0  0  0  0  0
   82.1414   -3.4288   -7.3502 H   0  0  0  0  0  0  0  0  0  0  0  0
   80.8786   -2.6103   -8.2778 H   0  0  0  0  0  0  0  0  0  0  0  0
   80.5433   -3.1924   -6.6356 H   0  0  0  0  0  0  0  0  0  0  0  0
   81.5468   -2.0405   -4.6681 H   0  0  0  0  0  0  0  0  0  0  0  0
   55.4829   -0.1428   -0.2841 C   0  0  0  0  0  0  0  0  0  0  0  0
   56.6593   -0.1508   -0.6052 C   0  0  0  0  0  0  0  0  0  0  0  0
   65.9778    0.0322   -0.4749 C   0  0  0  0  0  0  0  0  0  0  0  0
   67.1402    0.1623   -0.1268 C   0  0  0  0  0  0  0  0  0  0  0  0
   76.5478    0.2032    0.5385 C   0  0  0  0  0  0  0  0  0  0  0  0
   77.7525    0.0627    0.4203 C   0  0  0  0  0  0  0  0  0  0  0  0
   61.3350   -0.2005   -1.3842 Co  0  0  0  0  0  0  0  0  0  0  0  0
   58.0162   -0.1650   -0.9475 C   0  0  0  0  0  0  0  0  0  0  0  0
   58.6897    1.0465   -1.1510 C   0  0  0  0  0  0  0  0  0  0  0  0
   58.0401    2.3171   -1.2107 C   0  0  0  0  0  0  0  0  0  0  0  0
   58.9312    3.1850   -1.7544 C   0  0  0  0  0  0  0  0  0  0  0  0
   60.1383    2.4517   -1.9783 C   0  0  0  0  0  0  0  0  0  0  0  0
   59.9830    1.1500   -1.5797 N   0  0  0  0  0  0  0  0  0  0  0  0
   61.3158    2.9988   -2.4841 C   0  0  0  0  0  0  0  0  0  0  0  0
   62.5290    2.3354   -2.3685 C   0  0  0  0  0  0  0  0  0  0  0  0
   63.8091    2.9073   -2.6581 C   0  0  0  0  0  0  0  0  0  0  0  0
   64.7362    2.0950   -2.0897 C   0  0  0  0  0  0  0  0  0  0  0  0
   62.6904    1.1193   -1.7394 N   0  0  0  0  0  0  0  0  0  0  0  0
   64.0265    0.9957   -1.5196 C   0  0  0  0  0  0  0  0  0  0  0  0
   64.6382   -0.0834   -0.8563 C   0  0  0  0  0  0  0  0  0  0  0  0
   63.9662   -1.3028   -0.6973 C   0  0  0  0  0  0  0  0  0  0  0  0
   64.6121   -2.5273   -0.3456 C   0  0  0  0  0  0  0  0  0  0  0  0
   63.7369   -3.5250   -0.6314 C   0  0  0  0  0  0  0  0  0  0  0  0
   62.5396   -2.9017   -1.1046 C   0  0  0  0  0  0  0  0  0  0  0  0
   61.3747   -3.5820   -1.4490 C   0  0  0  0  0  0  0  0  0  0  0  0
   61.4339   -5.0557   -1.5692 C   0  0  0  0  0  0  0  0  0  0  0  0
   60.6786   -5.8760   -0.7320 C   0  0  0  0  0  0  0  0  0  0  0  0
   60.7469   -7.2597   -0.8513 C   0  0  0  0  0  0  0  0  0  0  0  0
   59.9491   -8.1416    0.0709 C   0  0  0  0  0  0  0  0  0  0  0  0
   61.5775   -7.8214   -1.8164 C   0  0  0  0  0  0  0  0  0  0  0  0
   62.3444   -7.0162   -2.6536 C   0  0  0  0  0  0  0  0  0  0  0  0
   63.2268   -7.6345   -3.7040 C   0  0  0  0  0  0  0  0  0  0  0  0
   62.2722   -5.6339   -2.5220 C   0  0  0  0  0  0  0  0  0  0  0  0
   60.1588   -2.9220   -1.5673 C   0  0  0  0  0  0  0  0  0  0  0  0
   58.8857   -3.5651   -1.6900 C   0  0  0  0  0  0  0  0  0  0  0  0
   57.9456   -2.6221   -1.4262 C   0  0  0  0  0  0  0  0  0  0  0  0
   58.6419   -1.3941   -1.2161 C   0  0  0  0  0  0  0  0  0  0  0  0
   59.9842   -1.5725   -1.3524 N   0  0  0  0  0  0  0  0  0  0  0  0
   62.6879   -1.5390   -1.1158 N   0  0  0  0  0  0  0  0  0  0  0  0
   61.2681    4.3675   -3.0439 C   0  0  0  0  0  0  0  0  0  0  0  0
   62.0230    5.3979   -2.4874 C   0  0  0  0  0  0  0  0  0  0  0  0
   61.9640    6.6835   -3.0181 C   0  0  0  0  0  0  0  0  0  0  0  0
   62.7721    7.7894   -2.3947 C   0  0  0  0  0  0  0  0  0  0  0  0
   61.1417    6.9325   -4.1110 C   0  0  0  0  0  0  0  0  0  0  0  0
   60.3739    5.9148   -4.6733 C   0  0  0  0  0  0  0  0  0  0  0  0
   59.4966    6.2017   -5.8617 C   0  0  0  0  0  0  0  0  0  0  0  0
   60.4381    4.6365   -4.1335 C   0  0  0  0  0  0  0  0  0  0  0  0
   57.0210    2.5014   -0.9117 H   0  0  0  0  0  0  0  0  0  0  0  0
   58.7986    4.2338   -1.9655 H   0  0  0  0  0  0  0  0  0  0  0  0
   63.9712    3.8201   -3.2076 H   0  0  0  0  0  0  0  0  0  0  0  0
   65.8086    2.2027   -2.0854 H   0  0  0  0  0  0  0  0  0  0  0  0
   65.6196   -2.6047    0.0302 H   0  0  0  0  0  0  0  0  0  0  0  0
   63.8723   -4.5877   -0.5116 H   0  0  0  0  0  0  0  0  0  0  0  0
   60.0529   -5.4288    0.0325 H   0  0  0  0  0  0  0  0  0  0  0  0
   59.6314   -9.0505   -0.4408 H   0  0  0  0  0  0  0  0  0  0  0  0
   60.5608   -8.4315    0.9283 H   0  0  0  0  0  0  0  0  0  0  0  0
   59.0679   -7.6190    0.4431 H   0  0  0  0  0  0  0  0  0  0  0  0
   61.6316   -8.9008   -1.9142 H   0  0  0  0  0  0  0  0  0  0  0  0
   64.0637   -6.9786   -3.9440 H   0  0  0  0  0  0  0  0  0  0  0  0
   62.6531   -7.8026   -4.6183 H   0  0  0  0  0  0  0  0  0  0  0  0
   63.6158   -8.5957   -3.3671 H   0  0  0  0  0  0  0  0  0  0  0  0
   62.8579   -4.9944   -3.1732 H   0  0  0  0  0  0  0  0  0  0  0  0
   58.7366   -4.6059   -1.9264 H   0  0  0  0  0  0  0  0  0  0  0  0
   56.8734   -2.7314   -1.4082 H   0  0  0  0  0  0  0  0  0  0  0  0
   62.6416    5.2007   -1.6189 H   0  0  0  0  0  0  0  0  0  0  0  0
   62.8317    8.6518   -3.0584 H   0  0  0  0  0  0  0  0  0  0  0  0
   63.7830    7.4467   -2.1703 H   0  0  0  0  0  0  0  0  0  0  0  0
   62.3088    8.1076   -1.4582 H   0  0  0  0  0  0  0  0  0  0  0  0
   61.0924    7.9325   -4.5298 H   0  0  0  0  0  0  0  0  0  0  0  0
   58.9475    7.1332   -5.7175 H   0  0  0  0  0  0  0  0  0  0  0  0
   58.7832    5.3940   -6.0244 H   0  0  0  0  0  0  0  0  0  0  0  0
   60.1083    6.3068   -6.7603 H   0  0  0  0  0  0  0  0  0  0  0  0
   59.8531    3.8325   -4.5665 H   0  0  0  0  0  0  0  0  0  0  0  0
   71.8022    0.5805    0.7173 Co  0  0  0  0  0  0  0  0  0  0  0  0
   68.4845    0.3241    0.2203 C   0  0  0  0  0  0  0  0  0  0  0  0
   69.1265    1.5304   -0.1082 C   0  0  0  0  0  0  0  0  0  0  0  0
   68.4542    2.7097   -0.5495 C   0  0  0  0  0  0  0  0  0  0  0  0
   69.4156    3.6230   -0.8384 C   0  0  0  0  0  0  0  0  0  0  0  0
   70.6746    2.9750   -0.6261 C   0  0  0  0  0  0  0  0  0  0  0  0
   70.4733    1.7198   -0.0922 N   0  0  0  0  0  0  0  0  0  0  0  0
   71.8941    3.4300   -1.1049 C   0  0  0  0  0  0  0  0  0  0  0  0
   73.0542    2.6687   -0.9819 C   0  0  0  0  0  0  0  0  0  0  0  0
   74.2804    2.9324   -1.6691 C   0  0  0  0  0  0  0  0  0  0  0  0
   75.1766    2.0076   -1.2405 C   0  0  0  0  0  0  0  0  0  0  0  0
   73.1927    1.5778   -0.1639 N   0  0  0  0  0  0  0  0  0  0  0  0
   74.5042    1.2051   -0.2684 C   0  0  0  0  0  0  0  0  0  0  0  0
   75.1600    0.3700    0.6438 C   0  0  0  0  0  0  0  0  0  0  0  0
   74.4710   -0.2193    1.7140 C   0  0  0  0  0  0  0  0  0  0  0  0
   75.0974   -0.8373    2.8374 C   0  0  0  0  0  0  0  0  0  0  0  0
   74.1045   -1.3594    3.6012 C   0  0  0  0  0  0  0  0  0  0  0  0
   72.8770   -1.1058    2.9093 C   0  0  0  0  0  0  0  0  0  0  0  0
   71.6680   -1.7329    3.1822 C   0  0  0  0  0  0  0  0  0  0  0  0
   71.5786   -2.7016    4.2971 C   0  0  0  0  0  0  0  0  0  0  0  0
   70.6316   -2.5144    5.3040 C   0  0  0  0  0  0  0  0  0  0  0  0
   70.5344   -3.4149    6.3587 C   0  0  0  0  0  0  0  0  0  0  0  0
   69.5318   -3.1929    7.4587 C   0  0  0  0  0  0  0  0  0  0  0  0
   71.3876   -4.5141    6.3978 C   0  0  0  0  0  0  0  0  0  0  0  0
   72.3304   -4.7208    5.3952 C   0  0  0  0  0  0  0  0  0  0  0  0
   73.2263   -5.9294    5.4313 C   0  0  0  0  0  0  0  0  0  0  0  0
   72.4218   -3.8111    4.3474 C   0  0  0  0  0  0  0  0  0  0  0  0
   70.5485   -1.5399    2.3791 C   0  0  0  0  0  0  0  0  0  0  0  0
   69.3598   -2.3345    2.4285 C   0  0  0  0  0  0  0  0  0  0  0  0
   68.4964   -1.8056    1.5247 C   0  0  0  0  0  0  0  0  0  0  0  0
   69.1460   -0.6681    0.9550 C   0  0  0  0  0  0  0  0  0  0  0  0
   70.4176   -0.5487    1.4395 N   0  0  0  0  0  0  0  0  0  0  0  0
   73.1153   -0.3321    1.7952 N   0  0  0  0  0  0  0  0  0  0  0  0
   71.9650    4.7093   -1.8445 C   0  0  0  0  0  0  0  0  0  0  0  0
   72.8327    5.7120   -1.4134 C   0  0  0  0  0  0  0  0  0  0  0  0
   72.9092    6.9219   -2.0951 C   0  0  0  0  0  0  0  0  0  0  0  0
   73.8560    7.9941   -1.6278 C   0  0  0  0  0  0  0  0  0  0  0  0
   72.1179    7.1202   -3.2222 C   0  0  0  0  0  0  0  0  0  0  0  0
   71.2543    6.1249   -3.6716 C   0  0  0  0  0  0  0  0  0  0  0  0
   70.4235    6.3431   -4.9072 C   0  0  0  0  0  0  0  0  0  0  0  0
   71.1818    4.9219   -2.9791 C   0  0  0  0  0  0  0  0  0  0  0  0
   67.3837    2.8239   -0.6007 H   0  0  0  0  0  0  0  0  0  0  0  0
   69.2905    4.6376   -1.1799 H   0  0  0  0  0  0  0  0  0  0  0  0
   74.4242    3.7166   -2.3946 H   0  0  0  0  0  0  0  0  0  0  0  0
   76.2105    1.8931   -1.5237 H   0  0  0  0  0  0  0  0  0  0  0  0
   76.1600   -0.8485    3.0186 H   0  0  0  0  0  0  0  0  0  0  0  0
   74.1900   -1.8836    4.5390 H   0  0  0  0  0  0  0  0  0  0  0  0
   69.9801   -1.6482    5.2673 H   0  0  0  0  0  0  0  0  0  0  0  0
   69.1576   -4.1435    7.8396 H   0  0  0  0  0  0  0  0  0  0  0  0
   70.0022   -2.6577    8.2868 H   0  0  0  0  0  0  0  0  0  0  0  0
   68.6902   -2.5981    7.1037 H   0  0  0  0  0  0  0  0  0  0  0  0
   71.3145   -5.2203    7.2185 H   0  0  0  0  0  0  0  0  0  0  0  0
   74.1570   -5.7396    4.8965 H   0  0  0  0  0  0  0  0  0  0  0  0
   72.7266   -6.7762    4.9552 H   0  0  0  0  0  0  0  0  0  0  0  0
   73.4596   -6.2085    6.4591 H   0  0  0  0  0  0  0  0  0  0  0  0
   73.1380   -3.9747    3.5497 H   0  0  0  0  0  0  0  0  0  0  0  0
   69.2190   -3.1941    3.0637 H   0  0  0  0  0  0  0  0  0  0  0  0
   67.4955   -2.1258    1.2838 H   0  0  0  0  0  0  0  0  0  0  0  0
   73.4357    5.5495   -0.5268 H   0  0  0  0  0  0  0  0  0  0  0  0
   73.5174    8.9796   -1.9479 H   0  0  0  0  0  0  0  0  0  0  0  0
   74.8488    7.8211   -2.0494 H   0  0  0  0  0  0  0  0  0  0  0  0
   73.9443    7.9861   -0.5411 H   0  0  0  0  0  0  0  0  0  0  0  0
   72.1741    8.0621   -3.7583 H   0  0  0  0  0  0  0  0  0  0  0  0
   70.0771    7.3755   -4.9629 H   0  0  0  0  0  0  0  0  0  0  0  0
   69.5588    5.6794   -4.9173 H   0  0  0  0  0  0  0  0  0  0  0  0
   71.0215    6.1385   -5.7981 H   0  0  0  0  0  0  0  0  0  0  0  0
   70.5281    4.1320   -3.3325 H   0  0  0  0  0  0  0  0  0  0  0  0
  2  3  4  0  0  0  0
  3  4  1  0  0  0  0
  4  5  2  0  0  0  0
  5  6  4  0  0  0  0
  1  7  1  0  0  0  0
  3  7  4  0  0  0  0
  6  7  4  0  0  0  0
  6  8  4  0  0  0  0
  8  9  4  0  0  0  0
  9 10  4  0  0  0  0
 10 11  2  0  0  0  0
  1 12  1  0  0  0  0
  9 12  4  0  0  0  0
 11 13  4  0  0  0  0
 12 13  4  0  0  0  0
 13 14  4  0  0  0  0
 14 15  4  0  0  0  0
 15 16  4  0  0  0  0
 16 17  2  0  0  0  0
 17 18  4  0  0  0  0
 18 19  4  0  0  0  0
 19 20  1  0  0  0  0
 20 21  4  0  0  0  0
 21 22  4  0  0  0  0
 22 23  1  0  0  0  0
 22 24  4  0  0  0  0
 24 25  4  0  0  0  0
 25 26  1  0  0  0  0
 20 27  4  0  0  0  0
 25 27  4  0  0  0  0
 19 28  4  0  0  0  0
 28 29  4  0  0  0  0
 29 30  2  0  0  0  0
  2 31  4  0  0  0  0
 30 31  1  0  0  0  0
  1 32  1  0  0  0  0
 28 32  4  0  0  0  0
 31 32  4  0  0  0  0
  1 33  1  0  0  0  0
 15 33  4  0  0  0  0
 18 33  4  0  0  0  0
  8 34  1  0  0  0  0
 34 35  4  0  0  0  0
 35 36  4  0  0  0  0
 36 37  1  0  0  0  0
 36 38  4  0  0  0  0
 38 39  4  0  0  0  0
 39 40  1  0  0  0  0
 34 41  4  0  0  0  0
 39 41  4  0  0  0  0
  2 42  1  0  0  0  0
  4 43  1  0  0  0  0
  5 44  1  0  0  0  0
 10 45  1  0  0  0  0
 11 46  1  0  0  0  0
 16 47  1  0  0  0  0
 17 48  1  0  0  0  0
 21 49  1  0  0  0  0
 23 50  1  0  0  0  0
 23 51  1  0  0  0  0
 23 52  1  0  0  0  0
 24 53  1  0  0  0  0
 26 54  1  0  0  0  0
 26 55  1  0  0  0  0
 26 56  1  0  0  0  0
 27 57  1  0  0  0  0
 29 58  1  0  0  0  0
 30 59  1  0  0  0  0
 35 60  1  0  0  0  0
 37 61  1  0  0  0  0
 37 62  1  0  0  0  0
 37 63  1  0  0  0  0
 38 64  1  0  0  0  0
 40 65  1  0  0  0  0
 40 66  1  0  0  0  0
 40 67  1  0  0  0  0
 41 68  1  0  0  0  0
 70 71  4  0  0  0  0
 71 72  1  0  0  0  0
 72 73  2  0  0  0  0
 73 74  4  0  0  0  0
 69 75  1  0  0  0  0
 71 75  4  0  0  0  0
 74 75  4  0  0  0  0
 74 76  4  0  0  0  0
 76 77  4  0  0  0  0
 77 78  4  0  0  0  0
 78 79  2  0  0  0  0
 69 80  1  0  0  0  0
 77 80  4  0  0  0  0
 79 81  4  0  0  0  0
 80 81  4  0  0  0  0
 81 82  4  0  0  0  0
 82 83  4  0  0  0  0
 83 84  4  0  0  0  0
 84 85  2  0  0  0  0
 85 86  4  0  0  0  0
 86 87  4  0  0  0  0
 87 88  1  0  0  0  0
 88 89  4  0  0  0  0
 89 90  4  0  0  0  0
 90 91  1  0  0  0  0
 90 92  4  0  0  0  0
 92 93  4  0  0  0  0
 93 94  1  0  0  0  0
 88 95  4  0  0  0  0
 93 95  4  0  0  0  0
 87 96  4  0  0  0  0
 96 97  4  0  0  0  0
 97 98  2  0  0  0  0
 70 99  4  0  0  0  0
 98 99  1  0  0  0  0
 69100  1  0  0  0  0
 96100  4  0  0  0  0
 99100  4  0  0  0  0
 69101  1  0  0  0  0
 83101  4  0  0  0  0
 86101  4  0  0  0  0
 76102  1  0  0  0  0
102103  4  0  0  0  0
103104  4  0  0  0  0
104105  1  0  0  0  0
104106  4  0  0  0  0
106107  4  0  0  0  0
107108  1  0  0  0  0
102109  4  0  0  0  0
107109  4  0  0  0  0
 70110  1  0  0  0  0
 72111  1  0  0  0  0
 73112  1  0  0  0  0
 78113  1  0  0  0  0
 79114  1  0  0  0  0
 84115  1  0  0  0  0
 85116  1  0  0  0  0
 89117  1  0  0  0  0
 91118  1  0  0  0  0
 91119  1  0  0  0  0
 91120  1  0  0  0  0
 92121  1  0  0  0  0
 94122  1  0  0  0  0
 94123  1  0  0  0  0
 94124  1  0  0  0  0
 95125  1  0  0  0  0
 97126  1  0  0  0  0
 98127  1  0  0  0  0
103128  1  0  0  0  0
105129  1  0  0  0  0
105130  1  0  0  0  0
105131  1  0  0  0  0
106132  1  0  0  0  0
108133  1  0  0  0  0
108134  1  0  0  0  0
108135  1  0  0  0  0
109136  1  0  0  0  0
 14137  4  0  0  0  0
137138  3  0  0  0  0
139140  3  0  0  0  0
 82142  4  0  0  0  0
141142  3  0  0  0  0
138144  4  0  0  0  0
144145  4  0  0  0  0
145146  4  0  0  0  0
146147  2  0  0  0  0
147148  4  0  0  0  0
143149  1  0  0  0  0
145149  4  0  0  0  0
148149  4  0  0  0  0
148150  4  0  0  0  0
150151  4  0  0  0  0
151152  4  0  0  0  0
152153  2  0  0  0  0
143154  1  0  0  0  0
151154  4  0  0  0  0
153155  4  0  0  0  0
154155  4  0  0  0  0
139156  4  0  0  0  0
155156  4  0  0  0  0
156157  4  0  0  0  0
157158  4  0  0  0  0
158159  2  0  0  0  0
159160  4  0  0  0  0
160161  4  0  0  0  0
161162  1  0  0  0  0
162163  4  0  0  0  0
163164  4  0  0  0  0
164165  1  0  0  0  0
164166  4  0  0  0  0
166167  4  0  0  0  0
167168  1  0  0  0  0
162169  4  0  0  0  0
167169  4  0  0  0  0
161170  4  0  0  0  0
170171  4  0  0  0  0
171172  2  0  0  0  0
144173  4  0  0  0  0
172173  4  0  0  0  0
143174  1  0  0  0  0
170174  4  0  0  0  0
173174  4  0  0  0  0
143175  1  0  0  0  0
157175  4  0  0  0  0
160175  4  0  0  0  0
150176  1  0  0  0  0
176177  4  0  0  0  0
177178  4  0  0  0  0
178179  1  0  0  0  0
178180  4  0  0  0  0
180181  4  0  0  0  0
181182  1  0  0  0  0
176183  4  0  0  0  0
181183  4  0  0  0  0
146184  1  0  0  0  0
147185  1  0  0  0  0
152186  1  0  0  0  0
153187  1  0  0  0  0
158188  1  0  0  0  0
159189  1  0  0  0  0
163190  1  0  0  0  0
165191  1  0  0  0  0
165192  1  0  0  0  0
165193  1  0  0  0  0
166194  1  0  0  0  0
168195  1  0  0  0  0
168196  1  0  0  0  0
168197  1  0  0  0  0
169198  1  0  0  0  0
171199  1  0  0  0  0
172200  1  0  0  0  0
177201  1  0  0  0  0
179202  1  0  0  0  0
179203  1  0  0  0  0
179204  1  0  0  0  0
180205  1  0  0  0  0
182206  1  0  0  0  0
182207  1  0  0  0  0
182208  1  0  0  0  0
183209  1  0  0  0  0
140211  4  0  0  0  0
211212  4  0  0  0  0
212213  4  0  0  0  0
213214  2  0  0  0  0
214215  4  0  0  0  0
210216  1  0  0  0  0
212216  4  0  0  0  0
215216  4  0  0  0  0
215217  4  0  0  0  0
217218  4  0  0  0  0
218219  4  0  0  0  0
219220  2  0  0  0  0
210221  1  0  0  0  0
218221  4  0  0  0  0
220222  4  0  0  0  0
221222  4  0  0  0  0
141223  4  0  0  0  0
222223  4  0  0  0  0
223224  4  0  0  0  0
224225  4  0  0  0  0
225226  2  0  0  0  0
226227  4  0  0  0  0
227228  4  0  0  0  0
228229  1  0  0  0  0
229230  4  0  0  0  0
230231  4  0  0  0  0
231232  1  0  0  0  0
231233  4  0  0  0  0
233234  4  0  0  0  0
234235  1  0  0  0  0
229236  4  0  0  0  0
234236  4  0  0  0  0
228237  4  0  0  0  0
237238  4  0  0  0  0
238239  2  0  0  0  0
211240  4  0  0  0  0
239240  4  0  0  0  0
210241  1  0  0  0  0
237241  4  0  0  0  0
240241  4  0  0  0  0
210242  1  0  0  0  0
224242  4  0  0  0  0
227242  4  0  0  0  0
217243  1  0  0  0  0
243244  4  0  0  0  0
244245  4  0  0  0  0
245246  1  0  0  0  0
245247  4  0  0  0  0
247248  4  0  0  0  0
248249  1  0  0  0  0
243250  4  0  0  0  0
248250  4  0  0  0  0
213251  1  0  0  0  0
214252  1  0  0  0  0
219253  1  0  0  0  0
220254  1  0  0  0  0
225255  1  0  0  0  0
226256  1  0  0  0  0
230257  1  0  0  0  0
232258  1  0  0  0  0
232259  1  0  0  0  0
232260  1  0  0  0  0
233261  1  0  0  0  0
235262  1  0  0  0  0
235263  1  0  0  0  0
235264  1  0  0  0  0
236265  1  0  0  0  0
238266  1  0  0  0  0
239267  1  0  0  0  0
244268  1  0  0  0  0
246269  1  0  0  0  0
246270  1  0  0  0  0
246271  1  0  0  0  0
247272  1  0  0  0  0
249273  1  0  0  0  0
249274  1  0  0  0  0
249275  1  0  0  0  0
250276  1  0  0  0  0
M  END
