 xtb: 6.5.1 (b24c23e)
          07312202003D

394428  0     0  0            999 V2000
   48.3991    0.0928    0.0391 C   0  0  0  0  0  0  0  0  0  0  0  0
   49.0242    0.0933    1.2794 C   0  0  0  0  0  0  0  0  0  0  0  0
   48.3971    0.0786    2.5574 C   0  0  0  0  0  0  0  0  0  0  0  0
   49.3784    0.0869    3.5082 C   0  0  0  0  0  0  0  0  0  0  0  0
   50.6366    0.1042    2.8415 C   0  0  0  0  0  0  0  0  0  0  0  0
   50.3724    0.1117    1.5009 N   0  0  0  0  0  0  0  0  0  0  0  0
   51.9065    0.1079    3.4254 C   0  0  0  0  0  0  0  0  0  0  0  0
   53.1167    0.0880    2.7323 C   0  0  0  0  0  0  0  0  0  0  0  0
   54.4133    0.0520    3.3837 C   0  0  0  0  0  0  0  0  0  0  0  0
   55.3358    0.0651    2.3988 C   0  0  0  0  0  0  0  0  0  0  0  0
   53.2723    0.1291    1.3801 N   0  0  0  0  0  0  0  0  0  0  0  0
   54.6004    0.1146    1.1496 C   0  0  0  0  0  0  0  0  0  0  0  0
   55.2327    0.1538   -0.1101 C   0  0  0  0  0  0  0  0  0  0  0  0
   54.5809    0.2044   -1.3567 C   0  0  0  0  0  0  0  0  0  0  0  0
   55.2018    0.2630   -2.6331 C   0  0  0  0  0  0  0  0  0  0  0  0
   54.2164    0.2994   -3.5801 C   0  0  0  0  0  0  0  0  0  0  0  0
   52.9623    0.2625   -2.9097 C   0  0  0  0  0  0  0  0  0  0  0  0
   51.6936    0.2699   -3.4944 C   0  0  0  0  0  0  0  0  0  0  0  0
   51.6541    0.2871   -4.9878 C   0  0  0  0  0  0  0  0  0  0  0  0
   51.8453    1.4284   -5.7713 C   0  0  0  0  0  0  0  0  0  0  0  0
   52.0558    2.6871   -5.3020 O   0  0  0  0  0  0  0  0  0  0  0  0
   51.6462    3.1137   -4.0153 C   0  0  0  0  0  0  0  0  0  0  0  0
   51.8550    1.3246   -7.1680 C   0  0  0  0  0  0  0  0  0  0  0  0
   51.6640    0.1025   -7.7797 C   0  0  0  0  0  0  0  0  0  0  0  0
   51.4514   -1.0429   -7.0218 C   0  0  0  0  0  0  0  0  0  0  0  0
   51.4500   -0.9476   -5.6348 C   0  0  0  0  0  0  0  0  0  0  0  0
   51.2733   -2.0133   -4.8080 O   0  0  0  0  0  0  0  0  0  0  0  0
   51.0368   -3.3005   -5.3417 C   0  0  0  0  0  0  0  0  0  0  0  0
   50.4831    0.1963   -2.8006 C   0  0  0  0  0  0  0  0  0  0  0  0
   49.1804    0.1734   -3.4463 C   0  0  0  0  0  0  0  0  0  0  0  0
   48.2649    0.1246   -2.4574 C   0  0  0  0  0  0  0  0  0  0  0  0
   49.0081    0.1233   -1.2091 C   0  0  0  0  0  0  0  0  0  0  0  0
   50.3407    0.1690   -1.4542 N   0  0  0  0  0  0  0  0  0  0  0  0
   53.2346    0.2096   -1.5674 N   0  0  0  0  0  0  0  0  0  0  0  0
   51.9431    0.0548    4.9190 C   0  0  0  0  0  0  0  0  0  0  0  0
   51.7994    1.1655    5.7546 C   0  0  0  0  0  0  0  0  0  0  0  0
   51.6381    2.4520    5.3449 O   0  0  0  0  0  0  0  0  0  0  0  0
   52.0684    2.9216    4.0801 C   0  0  0  0  0  0  0  0  0  0  0  0
   51.7818    0.9966    7.1449 C   0  0  0  0  0  0  0  0  0  0  0  0
   51.9179   -0.2599    7.6987 C   0  0  0  0  0  0  0  0  0  0  0  0
   52.0813   -1.3769    6.8880 C   0  0  0  0  0  0  0  0  0  0  0  0
   52.0900   -1.2167    5.5071 C   0  0  0  0  0  0  0  0  0  0  0  0
   52.2219   -2.2486    4.6306 O   0  0  0  0  0  0  0  0  0  0  0  0
   52.4139   -3.5669    5.1028 C   0  0  0  0  0  0  0  0  0  0  0  0
   47.3142    0.0687    0.0563 H   0  0  0  0  0  0  0  0  0  0  0  0
   47.3302    0.0641    2.7143 H   0  0  0  0  0  0  0  0  0  0  0  0
   49.2537    0.0785    4.5790 H   0  0  0  0  0  0  0  0  0  0  0  0
   51.0803    0.1070    0.7745 H   0  0  0  0  0  0  0  0  0  0  0  0
   54.5673    0.0151    4.4502 H   0  0  0  0  0  0  0  0  0  0  0  0
   56.4108    0.0443    2.4817 H   0  0  0  0  0  0  0  0  0  0  0  0
   56.2677    0.2754   -2.7945 H   0  0  0  0  0  0  0  0  0  0  0  0
   54.3385    0.3450   -4.6501 H   0  0  0  0  0  0  0  0  0  0  0  0
   52.3457    2.7839   -3.2394 H   0  0  0  0  0  0  0  0  0  0  0  0
   51.6397    4.2062   -4.0459 H   0  0  0  0  0  0  0  0  0  0  0  0
   50.6402    2.7541   -3.7750 H   0  0  0  0  0  0  0  0  0  0  0  0
   52.0136    2.2248   -7.7481 H   0  0  0  0  0  0  0  0  0  0  0  0
   51.6728    0.0327   -8.8616 H   0  0  0  0  0  0  0  0  0  0  0  0
   51.2981   -1.9930   -7.5154 H   0  0  0  0  0  0  0  0  0  0  0  0
   50.9121   -3.9660   -4.4854 H   0  0  0  0  0  0  0  0  0  0  0  0
   50.1244   -3.3214   -5.9498 H   0  0  0  0  0  0  0  0  0  0  0  0
   51.8837   -3.6468   -5.9465 H   0  0  0  0  0  0  0  0  0  0  0  0
   49.0204    0.1882   -4.5126 H   0  0  0  0  0  0  0  0  0  0  0  0
   47.1891    0.0927   -2.5326 H   0  0  0  0  0  0  0  0  0  0  0  0
   52.5297    0.1564   -0.8397 H   0  0  0  0  0  0  0  0  0  0  0  0
   53.0772    2.5670    3.8436 H   0  0  0  0  0  0  0  0  0  0  0  0
   52.0777    4.0122    4.1496 H   0  0  0  0  0  0  0  0  0  0  0  0
   51.3808    2.6215    3.2819 H   0  0  0  0  0  0  0  0  0  0  0  0
   51.6604    1.8748    7.7664 H   0  0  0  0  0  0  0  0  0  0  0  0
   51.9033   -0.3798    8.7761 H   0  0  0  0  0  0  0  0  0  0  0  0
   52.1912   -2.3550    7.3366 H   0  0  0  0  0  0  0  0  0  0  0  0
   51.5538   -3.9134    5.6886 H   0  0  0  0  0  0  0  0  0  0  0  0
   52.5198   -4.1947    4.2162 H   0  0  0  0  0  0  0  0  0  0  0  0
   53.3228   -3.6468    5.7113 H   0  0  0  0  0  0  0  0  0  0  0  0
  129.6753    0.0884   -0.1547 C   0  0  0  0  0  0  0  0  0  0  0  0
  129.0576   -0.0392   -1.3921 C   0  0  0  0  0  0  0  0  0  0  0  0
  129.6926   -0.1609   -2.6606 C   0  0  0  0  0  0  0  0  0  0  0  0
  128.7171   -0.2576   -3.6125 C   0  0  0  0  0  0  0  0  0  0  0  0
  127.4549   -0.2012   -2.9558 C   0  0  0  0  0  0  0  0  0  0  0  0
  127.7107   -0.0657   -1.6204 N   0  0  0  0  0  0  0  0  0  0  0  0
  126.1884   -0.2747   -3.5422 C   0  0  0  0  0  0  0  0  0  0  0  0
  124.9753   -0.2554   -2.8542 C   0  0  0  0  0  0  0  0  0  0  0  0
  123.6832   -0.3759   -3.5043 C   0  0  0  0  0  0  0  0  0  0  0  0
  122.7554   -0.2914   -2.5281 C   0  0  0  0  0  0  0  0  0  0  0  0
  124.8118   -0.0948   -1.5118 N   0  0  0  0  0  0  0  0  0  0  0  0
  123.4831   -0.1138   -1.2860 C   0  0  0  0  0  0  0  0  0  0  0  0
  122.8426    0.0323   -0.0381 C   0  0  0  0  0  0  0  0  0  0  0  0
  123.4854    0.2115    1.2010 C   0  0  0  0  0  0  0  0  0  0  0  0
  122.8559    0.3746    2.4640 C   0  0  0  0  0  0  0  0  0  0  0  0
  123.8348    0.5173    3.4079 C   0  0  0  0  0  0  0  0  0  0  0  0
  125.0933    0.4441    2.7488 C   0  0  0  0  0  0  0  0  0  0  0  0
  126.3585    0.5332    3.3343 C   0  0  0  0  0  0  0  0  0  0  0  0
  126.3902    0.6910    4.8198 C   0  0  0  0  0  0  0  0  0  0  0  0
  126.1844    1.8984    5.4925 C   0  0  0  0  0  0  0  0  0  0  0  0
  125.9621    3.1053    4.9069 O   0  0  0  0  0  0  0  0  0  0  0  0
  126.3714    3.4133    3.5867 C   0  0  0  0  0  0  0  0  0  0  0  0
  126.1706    1.9253    6.8928 C   0  0  0  0  0  0  0  0  0  0  0  0
  126.3723    0.7679    7.6165 C   0  0  0  0  0  0  0  0  0  0  0  0
  126.5995   -0.4411    6.9696 C   0  0  0  0  0  0  0  0  0  0  0  0
  126.6048   -0.4756    5.5798 C   0  0  0  0  0  0  0  0  0  0  0  0
  126.7959   -1.6115    4.8561 O   0  0  0  0  0  0  0  0  0  0  0  0
  127.0434   -2.8413    5.5072 C   0  0  0  0  0  0  0  0  0  0  0  0
  127.5739    0.4202    2.6547 C   0  0  0  0  0  0  0  0  0  0  0  0
  128.8732    0.4855    3.3042 C   0  0  0  0  0  0  0  0  0  0  0  0
  129.7949    0.3611    2.3277 C   0  0  0  0  0  0  0  0  0  0  0  0
  129.0588    0.2258    1.0826 C   0  0  0  0  0  0  0  0  0  0  0  0
  127.7243    0.2681    1.3174 N   0  0  0  0  0  0  0  0  0  0  0  0
  124.8300    0.2623    1.4160 N   0  0  0  0  0  0  0  0  0  0  0  0
  126.1580   -0.4625   -5.0248 C   0  0  0  0  0  0  0  0  0  0  0  0
  126.2893    0.5708   -5.9563 C   0  0  0  0  0  0  0  0  0  0  0  0
  126.4370    1.8901   -5.6612 O   0  0  0  0  0  0  0  0  0  0  0  0
  125.9851    2.4659   -4.4488 C   0  0  0  0  0  0  0  0  0  0  0  0
  126.3080    0.2790   -7.3259 C   0  0  0  0  0  0  0  0  0  0  0  0
  126.1843   -1.0234   -7.7652 C   0  0  0  0  0  0  0  0  0  0  0  0
  126.0339   -2.0654   -6.8580 C   0  0  0  0  0  0  0  0  0  0  0  0
  126.0252   -1.7829   -5.4967 C   0  0  0  0  0  0  0  0  0  0  0  0
  125.9066   -2.7337   -4.5310 O   0  0  0  0  0  0  0  0  0  0  0  0
  125.7285   -4.0911   -4.8823 C   0  0  0  0  0  0  0  0  0  0  0  0
  130.7605    0.0830   -0.1652 H   0  0  0  0  0  0  0  0  0  0  0  0
  130.7605   -0.1711   -2.8106 H   0  0  0  0  0  0  0  0  0  0  0  0
  128.8484   -0.3624   -4.6774 H   0  0  0  0  0  0  0  0  0  0  0  0
  126.9979   -0.0163   -0.9004 H   0  0  0  0  0  0  0  0  0  0  0  0
  123.5353   -0.5124   -4.5636 H   0  0  0  0  0  0  0  0  0  0  0  0
  121.6815   -0.3405   -2.6131 H   0  0  0  0  0  0  0  0  0  0  0  0
  121.7889    0.3801    2.6187 H   0  0  0  0  0  0  0  0  0  0  0  0
  123.7057    0.6580    4.4687 H   0  0  0  0  0  0  0  0  0  0  0  0
  125.6822    2.9979    2.8433 H   0  0  0  0  0  0  0  0  0  0  0  0
  126.3589    4.5035    3.5120 H   0  0  0  0  0  0  0  0  0  0  0  0
  127.3849    3.0501    3.3862 H   0  0  0  0  0  0  0  0  0  0  0  0
  126.0006    2.8740    7.3859 H   0  0  0  0  0  0  0  0  0  0  0  0
  126.3606    0.7996    8.7001 H   0  0  0  0  0  0  0  0  0  0  0  0
  126.7612   -1.3393    7.5502 H   0  0  0  0  0  0  0  0  0  0  0  0
  127.1783   -3.5816    4.7164 H   0  0  0  0  0  0  0  0  0  0  0  0
  127.9536   -2.7964    6.1174 H   0  0  0  0  0  0  0  0  0  0  0  0
  126.1977   -3.1392    6.1388 H   0  0  0  0  0  0  0  0  0  0  0  0
  129.0270    0.6052    4.3648 H   0  0  0  0  0  0  0  0  0  0  0  0
  130.8707    0.3584    2.4095 H   0  0  0  0  0  0  0  0  0  0  0  0
  125.5408    0.1566    0.6998 H   0  0  0  0  0  0  0  0  0  0  0  0
  124.9812    2.1142   -4.1886 H   0  0  0  0  0  0  0  0  0  0  0  0
  125.9550    3.5451   -4.6186 H   0  0  0  0  0  0  0  0  0  0  0  0
  126.6706    2.2548   -3.6207 H   0  0  0  0  0  0  0  0  0  0  0  0
  126.4192    1.0993   -8.0236 H   0  0  0  0  0  0  0  0  0  0  0  0
  126.1979   -1.2384   -8.8277 H   0  0  0  0  0  0  0  0  0  0  0  0
  125.9333   -3.0807   -7.2173 H   0  0  0  0  0  0  0  0  0  0  0  0
  126.5888   -4.4780   -5.4419 H   0  0  0  0  0  0  0  0  0  0  0  0
  125.6372   -4.6384   -3.9422 H   0  0  0  0  0  0  0  0  0  0  0  0
  124.8164   -4.2361   -5.4736 H   0  0  0  0  0  0  0  0  0  0  0  0
   56.6379    0.1461   -0.1393 C   0  0  0  0  0  0  0  0  0  0  0  0
   57.8619    0.1372   -0.1733 C   0  0  0  0  0  0  0  0  0  0  0  0
   59.2045    0.1293   -0.2035 C   0  0  0  0  0  0  0  0  0  0  0  0
   60.4347    0.1215   -0.2386 C   0  0  0  0  0  0  0  0  0  0  0  0
   61.7725    0.1081   -0.2649 C   0  0  0  0  0  0  0  0  0  0  0  0
   63.0030    0.0950   -0.2872 C   0  0  0  0  0  0  0  0  0  0  0  0
   64.3456    0.0862   -0.3019 C   0  0  0  0  0  0  0  0  0  0  0  0
   65.5704    0.0739   -0.3117 C   0  0  0  0  0  0  0  0  0  0  0  0
   75.2600   -0.0183   -0.2180 C   0  0  0  0  0  0  0  0  0  0  0  0
   76.4853   -0.0252   -0.2195 C   0  0  0  0  0  0  0  0  0  0  0  0
   77.8267   -0.0292   -0.2261 C   0  0  0  0  0  0  0  0  0  0  0  0
   79.0581   -0.0290   -0.2357 C   0  0  0  0  0  0  0  0  0  0  0  0
   80.3948   -0.0311   -0.2481 C   0  0  0  0  0  0  0  0  0  0  0  0
   81.6261   -0.0314   -0.2614 C   0  0  0  0  0  0  0  0  0  0  0  0
   82.9674   -0.0319   -0.2727 C   0  0  0  0  0  0  0  0  0  0  0  0
   84.1928   -0.0335   -0.2815 C   0  0  0  0  0  0  0  0  0  0  0  0
   93.8823   -0.0386   -0.2075 C   0  0  0  0  0  0  0  0  0  0  0  0
   95.1076   -0.0410   -0.2094 C   0  0  0  0  0  0  0  0  0  0  0  0
   96.4489   -0.0396   -0.2120 C   0  0  0  0  0  0  0  0  0  0  0  0
   97.6804   -0.0421   -0.2196 C   0  0  0  0  0  0  0  0  0  0  0  0
   99.0170   -0.0417   -0.2281 C   0  0  0  0  0  0  0  0  0  0  0  0
  100.2484   -0.0402   -0.2375 C   0  0  0  0  0  0  0  0  0  0  0  0
  101.5897   -0.0359   -0.2465 C   0  0  0  0  0  0  0  0  0  0  0  0
  102.8150   -0.0372   -0.2583 C   0  0  0  0  0  0  0  0  0  0  0  0
  112.5047   -0.0624   -0.1198 C   0  0  0  0  0  0  0  0  0  0  0  0
  113.7293   -0.0647   -0.0956 C   0  0  0  0  0  0  0  0  0  0  0  0
  115.0716   -0.0610   -0.0691 C   0  0  0  0  0  0  0  0  0  0  0  0
  116.3022   -0.0564   -0.0495 C   0  0  0  0  0  0  0  0  0  0  0  0
  117.6400   -0.0430   -0.0304 C   0  0  0  0  0  0  0  0  0  0  0  0
  118.8705   -0.0285   -0.0158 C   0  0  0  0  0  0  0  0  0  0  0  0
  120.2132   -0.0145   -0.0139 C   0  0  0  0  0  0  0  0  0  0  0  0
  121.4376    0.0050   -0.0197 C   0  0  0  0  0  0  0  0  0  0  0  0
   66.9749    0.0646   -0.3146 C   0  0  0  0  0  0  0  0  0  0  0  0
   67.6115    1.2697    0.0392 C   0  0  0  0  0  0  0  0  0  0  0  0
   66.9738    2.4856    0.4000 C   0  0  0  0  0  0  0  0  0  0  0  0
   67.9482    3.4064    0.6706 C   0  0  0  0  0  0  0  0  0  0  0  0
   69.2096    2.7799    0.4789 C   0  0  0  0  0  0  0  0  0  0  0  0
   68.9548    1.4890    0.1003 N   0  0  0  0  0  0  0  0  0  0  0  0
   70.4720    3.3542    0.6601 C   0  0  0  0  0  0  0  0  0  0  0  0
   71.6940    2.7037    0.4969 C   0  0  0  0  0  0  0  0  0  0  0  0
   72.9812    3.3532    0.6673 C   0  0  0  0  0  0  0  0  0  0  0  0
   73.9191    2.4160    0.4208 C   0  0  0  0  0  0  0  0  0  0  0  0
   71.8715    1.3998    0.1441 N   0  0  0  0  0  0  0  0  0  0  0  0
   73.2028    1.1976    0.0954 C   0  0  0  0  0  0  0  0  0  0  0  0
   73.8568   -0.0098   -0.2258 C   0  0  0  0  0  0  0  0  0  0  0  0
   73.2220   -1.2197   -0.5688 C   0  0  0  0  0  0  0  0  0  0  0  0
   73.8571   -2.4454   -0.8982 C   0  0  0  0  0  0  0  0  0  0  0  0
   72.8814   -3.3603   -1.1865 C   0  0  0  0  0  0  0  0  0  0  0  0
   71.6223   -2.7177   -1.0409 C   0  0  0  0  0  0  0  0  0  0  0  0
   70.3601   -3.2815   -1.2521 C   0  0  0  0  0  0  0  0  0  0  0  0
   70.3446   -4.7249   -1.6415 C   0  0  0  0  0  0  0  0  0  0  0  0
   70.1520   -5.6599   -0.6056 C   0  0  0  0  0  0  0  0  0  0  0  0
   69.9693   -5.1239    0.6313 O   0  0  0  0  0  0  0  0  0  0  0  0
   69.7386   -5.9614    1.7461 C   0  0  0  0  0  0  0  0  0  0  0  0
   70.1676   -7.0271   -0.8566 C   0  0  0  0  0  0  0  0  0  0  0  0
   70.3845   -7.4748   -2.1544 C   0  0  0  0  0  0  0  0  0  0  0  0
   70.5674   -6.5772   -3.1862 C   0  0  0  0  0  0  0  0  0  0  0  0
   70.5432   -5.1982   -2.9413 C   0  0  0  0  0  0  0  0  0  0  0  0
   70.7504   -4.4324   -4.0450 O   0  0  0  0  0  0  0  0  0  0  0  0
   70.3608   -3.0741   -4.1354 C   0  0  0  0  0  0  0  0  0  0  0  0
   69.1377   -2.6368   -1.0710 C   0  0  0  0  0  0  0  0  0  0  0  0
   67.8531   -3.2804   -1.2769 C   0  0  0  0  0  0  0  0  0  0  0  0
   66.9129   -2.3476   -1.0178 C   0  0  0  0  0  0  0  0  0  0  0  0
   67.6263   -1.1370   -0.6601 C   0  0  0  0  0  0  0  0  0  0  0  0
   68.9583   -1.3376   -0.7052 N   0  0  0  0  0  0  0  0  0  0  0  0
   71.8789   -1.4260   -0.6636 N   0  0  0  0  0  0  0  0  0  0  0  0
   70.4919    4.7890    1.0651 C   0  0  0  0  0  0  0  0  0  0  0  0
   70.0899    5.7854    0.1656 C   0  0  0  0  0  0  0  0  0  0  0  0
   69.6959    5.3541   -1.0621 O   0  0  0  0  0  0  0  0  0  0  0  0
   69.2861    6.2812   -2.0477 C   0  0  0  0  0  0  0  0  0  0  0  0
   70.1171    7.1276    0.5427 C   0  0  0  0  0  0  0  0  0  0  0  0
   70.5374    7.4669    1.8198 C   0  0  0  0  0  0  0  0  0  0  0  0
   70.9321    6.4977    2.7294 C   0  0  0  0  0  0  0  0  0  0  0  0
   70.9119    5.1557    2.3509 C   0  0  0  0  0  0  0  0  0  0  0  0
   71.2689    4.1342    3.1720 O   0  0  0  0  0  0  0  0  0  0  0  0
   71.7393    4.3959    4.4791 C   0  0  0  0  0  0  0  0  0  0  0  0
   65.9059    2.6263    0.4462 H   0  0  0  0  0  0  0  0  0  0  0  0
   67.8103    4.4303    0.9773 H   0  0  0  0  0  0  0  0  0  0  0  0
   69.6680    0.7947   -0.0956 H   0  0  0  0  0  0  0  0  0  0  0  0
   73.1228    4.3874    0.9364 H   0  0  0  0  0  0  0  0  0  0  0  0
   74.9928    2.5126    0.4461 H   0  0  0  0  0  0  0  0  0  0  0  0
   74.9243   -2.5980   -0.9103 H   0  0  0  0  0  0  0  0  0  0  0  0
   73.0149   -4.3906   -1.4738 H   0  0  0  0  0  0  0  0  0  0  0  0
   69.6085   -5.2976    2.6029 H   0  0  0  0  0  0  0  0  0  0  0  0
   70.5904   -6.6268    1.9324 H   0  0  0  0  0  0  0  0  0  0  0  0
   68.8307   -6.5627    1.6153 H   0  0  0  0  0  0  0  0  0  0  0  0
   70.0213   -7.7424   -0.0586 H   0  0  0  0  0  0  0  0  0  0  0  0
   70.4040   -8.5400   -2.3555 H   0  0  0  0  0  0  0  0  0  0  0  0
   70.7310   -6.9144   -4.2019 H   0  0  0  0  0  0  0  0  0  0  0  0
   70.3984   -2.8195   -5.1975 H   0  0  0  0  0  0  0  0  0  0  0  0
   69.3412   -2.9242   -3.7650 H   0  0  0  0  0  0  0  0  0  0  0  0
   71.0472   -2.4190   -3.5881 H   0  0  0  0  0  0  0  0  0  0  0  0
   67.7179   -4.3083   -1.5730 H   0  0  0  0  0  0  0  0  0  0  0  0
   65.8395   -2.4426   -1.0575 H   0  0  0  0  0  0  0  0  0  0  0  0
   71.1678   -0.7281   -0.4724 H   0  0  0  0  0  0  0  0  0  0  0  0
   70.0938    6.9771   -2.3047 H   0  0  0  0  0  0  0  0  0  0  0  0
   68.4067    6.8503   -1.7228 H   0  0  0  0  0  0  0  0  0  0  0  0
   69.0261    5.6923   -2.9293 H   0  0  0  0  0  0  0  0  0  0  0  0
   69.8150    7.9050   -0.1460 H   0  0  0  0  0  0  0  0  0  0  0  0
   70.5560    8.5107    2.1133 H   0  0  0  0  0  0  0  0  0  0  0  0
   71.2501    6.7907    3.7209 H   0  0  0  0  0  0  0  0  0  0  0  0
   72.6424    5.0177    4.4633 H   0  0  0  0  0  0  0  0  0  0  0  0
   71.9800    3.4246    4.9149 H   0  0  0  0  0  0  0  0  0  0  0  0
   70.9724    4.8855    5.0915 H   0  0  0  0  0  0  0  0  0  0  0  0
   85.5958   -0.0296   -0.2869 C   0  0  0  0  0  0  0  0  0  0  0  0
   86.2227    1.1845    0.0555 C   0  0  0  0  0  0  0  0  0  0  0  0
   85.5750    2.3976    0.4066 C   0  0  0  0  0  0  0  0  0  0  0  0
   86.5419    3.3275    0.6741 C   0  0  0  0  0  0  0  0  0  0  0  0
   87.8083    2.7093    0.4898 C   0  0  0  0  0  0  0  0  0  0  0  0
   87.5641    1.4144    0.1179 N   0  0  0  0  0  0  0  0  0  0  0  0
   89.0658    3.2937    0.6732 C   0  0  0  0  0  0  0  0  0  0  0  0
   90.2933    2.6528    0.5145 C   0  0  0  0  0  0  0  0  0  0  0  0
   91.5750    3.3125    0.6872 C   0  0  0  0  0  0  0  0  0  0  0  0
   92.5208    2.3834    0.4401 C   0  0  0  0  0  0  0  0  0  0  0  0
   90.4820    1.3506    0.1607 N   0  0  0  0  0  0  0  0  0  0  0  0
   91.8149    1.1597    0.1118 C   0  0  0  0  0  0  0  0  0  0  0  0
   92.4792   -0.0406   -0.2150 C   0  0  0  0  0  0  0  0  0  0  0  0
   91.8548   -1.2544   -0.5640 C   0  0  0  0  0  0  0  0  0  0  0  0
   92.5004   -2.4713   -0.9051 C   0  0  0  0  0  0  0  0  0  0  0  0
   91.5321   -3.3946   -1.1928 C   0  0  0  0  0  0  0  0  0  0  0  0
   90.2676   -2.7661   -1.0340 C   0  0  0  0  0  0  0  0  0  0  0  0
   89.0100   -3.3433   -1.2357 C   0  0  0  0  0  0  0  0  0  0  0  0
   89.0051   -4.7895   -1.6171 C   0  0  0  0  0  0  0  0  0  0  0  0
   88.8926   -5.7165   -0.5620 C   0  0  0  0  0  0  0  0  0  0  0  0
   88.7781   -5.1688    0.6782 O   0  0  0  0  0  0  0  0  0  0  0  0
   88.6278   -5.9967    1.8136 C   0  0  0  0  0  0  0  0  0  0  0  0
   88.9116   -7.0859   -0.7991 C   0  0  0  0  0  0  0  0  0  0  0  0
   89.0504   -7.5443   -2.1039 C   0  0  0  0  0  0  0  0  0  0  0  0
   89.1568   -6.6553   -3.1533 C   0  0  0  0  0  0  0  0  0  0  0  0
   89.1306   -5.2734   -2.9218 C   0  0  0  0  0  0  0  0  0  0  0  0
   89.2599   -4.5228   -4.0467 O   0  0  0  0  0  0  0  0  0  0  0  0
   88.9314   -3.1477   -4.1164 C   0  0  0  0  0  0  0  0  0  0  0  0
   87.7824   -2.7126   -1.0432 C   0  0  0  0  0  0  0  0  0  0  0  0
   86.5035   -3.3727   -1.2298 C   0  0  0  0  0  0  0  0  0  0  0  0
   85.5553   -2.4490   -0.9668 C   0  0  0  0  0  0  0  0  0  0  0  0
   86.2583   -1.2278   -0.6255 C   0  0  0  0  0  0  0  0  0  0  0  0
   87.5916   -1.4130   -0.6825 N   0  0  0  0  0  0  0  0  0  0  0  0
   90.5134   -1.4736   -0.6526 N   0  0  0  0  0  0  0  0  0  0  0  0
   89.0722    4.7305    1.0716 C   0  0  0  0  0  0  0  0  0  0  0  0
   88.6668    5.7183    0.1642 C   0  0  0  0  0  0  0  0  0  0  0  0
   88.2839    5.2764   -1.0633 O   0  0  0  0  0  0  0  0  0  0  0  0
   87.8784    6.1945   -2.0590 C   0  0  0  0  0  0  0  0  0  0  0  0
   88.6793    7.0628    0.5338 C   0  0  0  0  0  0  0  0  0  0  0  0
   89.0899    7.4131    1.8111 C   0  0  0  0  0  0  0  0  0  0  0  0
   89.4879    6.4525    2.7284 C   0  0  0  0  0  0  0  0  0  0  0  0
   89.4804    5.1081    2.3580 C   0  0  0  0  0  0  0  0  0  0  0  0
   89.8390    4.0945    3.1883 O   0  0  0  0  0  0  0  0  0  0  0  0
   90.2958    4.3690    4.4977 C   0  0  0  0  0  0  0  0  0  0  0  0
   84.5060    2.5309    0.4488 H   0  0  0  0  0  0  0  0  0  0  0  0
   86.3953    4.3522    0.9739 H   0  0  0  0  0  0  0  0  0  0  0  0
   88.2827    0.7243   -0.0729 H   0  0  0  0  0  0  0  0  0  0  0  0
   91.7078    4.3474    0.9580 H   0  0  0  0  0  0  0  0  0  0  0  0
   93.5937    2.4890    0.4659 H   0  0  0  0  0  0  0  0  0  0  0  0
   93.5689   -2.6130   -0.9256 H   0  0  0  0  0  0  0  0  0  0  0  0
   91.6738   -4.4216   -1.4881 H   0  0  0  0  0  0  0  0  0  0  0  0
   88.5362   -5.3251    2.6692 H   0  0  0  0  0  0  0  0  0  0  0  0
   89.5008   -6.6451    1.9569 H   0  0  0  0  0  0  0  0  0  0  0  0
   87.7247   -6.6150    1.7429 H   0  0  0  0  0  0  0  0  0  0  0  0
   88.8262   -7.7943    0.0138 H   0  0  0  0  0  0  0  0  0  0  0  0
   89.0707   -8.6111   -2.2959 H   0  0  0  0  0  0  0  0  0  0  0  0
   89.2610   -7.0010   -4.1740 H   0  0  0  0  0  0  0  0  0  0  0  0
   88.9394   -2.8908   -5.1785 H   0  0  0  0  0  0  0  0  0  0  0  0
   87.9351   -2.9518   -3.7063 H   0  0  0  0  0  0  0  0  0  0  0  0
   89.6690   -2.5282   -3.5948 H   0  0  0  0  0  0  0  0  0  0  0  0
   86.3773   -4.4045   -1.5164 H   0  0  0  0  0  0  0  0  0  0  0  0
   84.4827   -2.5570   -0.9935 H   0  0  0  0  0  0  0  0  0  0  0  0
   89.7968   -0.7839   -0.4525 H   0  0  0  0  0  0  0  0  0  0  0  0
   88.6833    6.8956   -2.3100 H   0  0  0  0  0  0  0  0  0  0  0  0
   86.9903    6.7579   -1.7480 H   0  0  0  0  0  0  0  0  0  0  0  0
   87.6340    5.5984   -2.9402 H   0  0  0  0  0  0  0  0  0  0  0  0
   88.3728    7.8334   -0.1607 H   0  0  0  0  0  0  0  0  0  0  0  0
   89.0979    8.4586    2.0988 H   0  0  0  0  0  0  0  0  0  0  0  0
   89.7982    6.7544    3.7197 H   0  0  0  0  0  0  0  0  0  0  0  0
   91.1951    4.9963    4.4854 H   0  0  0  0  0  0  0  0  0  0  0  0
   90.5385    3.4025    4.9432 H   0  0  0  0  0  0  0  0  0  0  0  0
   89.5203    4.8583    5.0994 H   0  0  0  0  0  0  0  0  0  0  0  0
  104.2180   -0.0332   -0.2613 C   0  0  0  0  0  0  0  0  0  0  0  0
  104.8450    1.1805    0.0816 C   0  0  0  0  0  0  0  0  0  0  0  0
  104.1983    2.3955    0.4283 C   0  0  0  0  0  0  0  0  0  0  0  0
  105.1659    3.3236    0.6985 C   0  0  0  0  0  0  0  0  0  0  0  0
  106.4319    2.7021    0.5216 C   0  0  0  0  0  0  0  0  0  0  0  0
  106.1866    1.4076    0.1492 N   0  0  0  0  0  0  0  0  0  0  0  0
  107.6896    3.2824    0.7154 C   0  0  0  0  0  0  0  0  0  0  0  0
  108.9164    2.6374    0.5681 C   0  0  0  0  0  0  0  0  0  0  0  0
  110.1983    3.2922    0.7576 C   0  0  0  0  0  0  0  0  0  0  0  0
  111.1436    2.3603    0.5200 C   0  0  0  0  0  0  0  0  0  0  0  0
  109.1043    1.3358    0.2130 N   0  0  0  0  0  0  0  0  0  0  0  0
  110.4374    1.1400    0.1791 C   0  0  0  0  0  0  0  0  0  0  0  0
  111.1007   -0.0596   -0.1496 C   0  0  0  0  0  0  0  0  0  0  0  0
  110.4767   -1.2663   -0.5211 C   0  0  0  0  0  0  0  0  0  0  0  0
  111.1218   -2.4796   -0.8766 C   0  0  0  0  0  0  0  0  0  0  0  0
  110.1533   -3.3966   -1.1826 C   0  0  0  0  0  0  0  0  0  0  0  0
  108.8891   -2.7685   -1.0195 C   0  0  0  0  0  0  0  0  0  0  0  0
  107.6315   -3.3418   -1.2317 C   0  0  0  0  0  0  0  0  0  0  0  0
  107.6232   -4.7865   -1.6204 C   0  0  0  0  0  0  0  0  0  0  0  0
  107.5789   -5.7152   -0.5613 C   0  0  0  0  0  0  0  0  0  0  0  0
  107.5404   -5.1681    0.6841 O   0  0  0  0  0  0  0  0  0  0  0  0
  107.4542   -5.9968    1.8257 C   0  0  0  0  0  0  0  0  0  0  0  0
  107.5819   -7.0843   -0.7994 C   0  0  0  0  0  0  0  0  0  0  0  0
  107.6349   -7.5415   -2.1110 C   0  0  0  0  0  0  0  0  0  0  0  0
  107.6777   -6.6515   -3.1637 C   0  0  0  0  0  0  0  0  0  0  0  0
  107.6693   -5.2690   -2.9307 C   0  0  0  0  0  0  0  0  0  0  0  0
  107.7286   -4.5240   -4.0643 O   0  0  0  0  0  0  0  0  0  0  0  0
  107.5191   -3.1252   -4.1069 C   0  0  0  0  0  0  0  0  0  0  0  0
  106.4042   -2.7119   -1.0346 C   0  0  0  0  0  0  0  0  0  0  0  0
  105.1249   -3.3721   -1.2196 C   0  0  0  0  0  0  0  0  0  0  0  0
  104.1771   -2.4505   -0.9479 C   0  0  0  0  0  0  0  0  0  0  0  0
  104.8805   -1.2304   -0.6036 C   0  0  0  0  0  0  0  0  0  0  0  0
  106.2137   -1.4145   -0.6657 N   0  0  0  0  0  0  0  0  0  0  0  0
  109.1352   -1.4815   -0.6205 N   0  0  0  0  0  0  0  0  0  0  0  0
  107.6965    4.7192    1.1138 C   0  0  0  0  0  0  0  0  0  0  0  0
  107.3095    5.7077    0.1992 C   0  0  0  0  0  0  0  0  0  0  0  0
  106.9450    5.2655   -1.0337 O   0  0  0  0  0  0  0  0  0  0  0  0
  106.5687    6.1838   -2.0406 C   0  0  0  0  0  0  0  0  0  0  0  0
  107.3203    7.0523    0.5682 C   0  0  0  0  0  0  0  0  0  0  0  0
  107.7108    7.4017    1.8520 C   0  0  0  0  0  0  0  0  0  0  0  0
  108.0910    6.4404    2.7761 C   0  0  0  0  0  0  0  0  0  0  0  0
  108.0854    5.0958    2.4064 C   0  0  0  0  0  0  0  0  0  0  0  0
  108.4279    4.0812    3.2422 O   0  0  0  0  0  0  0  0  0  0  0  0
  108.8601    4.3542    4.5603 C   0  0  0  0  0  0  0  0  0  0  0  0
  103.1294    2.5311    0.4655 H   0  0  0  0  0  0  0  0  0  0  0  0
  105.0206    4.3492    0.9962 H   0  0  0  0  0  0  0  0  0  0  0  0
  106.9045    0.7157   -0.0376 H   0  0  0  0  0  0  0  0  0  0  0  0
  110.3313    4.3261    1.0323 H   0  0  0  0  0  0  0  0  0  0  0  0
  112.2165    2.4621    0.5585 H   0  0  0  0  0  0  0  0  0  0  0  0
  112.1903   -2.6225   -0.8944 H   0  0  0  0  0  0  0  0  0  0  0  0
  110.2941   -4.4192   -1.4931 H   0  0  0  0  0  0  0  0  0  0  0  0
  107.4155   -5.3258    2.6858 H   0  0  0  0  0  0  0  0  0  0  0  0
  108.3316   -6.6485    1.9169 H   0  0  0  0  0  0  0  0  0  0  0  0
  106.5462   -6.6116    1.8075 H   0  0  0  0  0  0  0  0  0  0  0  0
  107.5474   -7.7932    0.0167 H   0  0  0  0  0  0  0  0  0  0  0  0
  107.6402   -8.6081   -2.3052 H   0  0  0  0  0  0  0  0  0  0  0  0
  107.7173   -6.9963   -4.1892 H   0  0  0  0  0  0  0  0  0  0  0  0
  107.5166   -2.8559   -5.1658 H   0  0  0  0  0  0  0  0  0  0  0  0
  106.5565   -2.8491   -3.6637 H   0  0  0  0  0  0  0  0  0  0  0  0
  108.3237   -2.5794   -3.6022 H   0  0  0  0  0  0  0  0  0  0  0  0
  104.9984   -4.4027   -1.5103 H   0  0  0  0  0  0  0  0  0  0  0  0
  103.1045   -2.5593   -0.9704 H   0  0  0  0  0  0  0  0  0  0  0  0
  108.4189   -0.7936   -0.4136 H   0  0  0  0  0  0  0  0  0  0  0  0
  107.3847    6.8777   -2.2757 H   0  0  0  0  0  0  0  0  0  0  0  0
  105.6786    6.7552   -1.7508 H   0  0  0  0  0  0  0  0  0  0  0  0
  106.3390    5.5871   -2.9252 H   0  0  0  0  0  0  0  0  0  0  0  0
  107.0277    7.8235   -0.1316 H   0  0  0  0  0  0  0  0  0  0  0  0
  107.7172    8.4473    2.1396 H   0  0  0  0  0  0  0  0  0  0  0  0
  108.3862    6.7418    3.7721 H   0  0  0  0  0  0  0  0  0  0  0  0
  109.7626    4.9771    4.5655 H   0  0  0  0  0  0  0  0  0  0  0  0
  109.0891    3.3868    5.0109 H   0  0  0  0  0  0  0  0  0  0  0  0
  108.0753    4.8477    5.1462 H   0  0  0  0  0  0  0  0  0  0  0  0
  1  2  4  0  0  0  0
  2  3  4  0  0  0  0
  3  4  2  0  0  0  0
  4  5  4  0  0  0  0
  2  6  4  0  0  0  0
  5  6  4  0  0  0  0
  5  7  4  0  0  0  0
  7  8  4  0  0  0  0
  8  9  1  0  0  0  0
  9 10  2  0  0  0  0
  8 11  4  0  0  0  0
 10 12  1  0  0  0  0
 11 12  4  0  0  0  0
 12 13  4  0  0  0  0
 13 14  4  0  0  0  0
 14 15  4  0  0  0  0
 15 16  2  0  0  0  0
 16 17  4  0  0  0  0
 17 18  4  0  0  0  0
 18 19  1  0  0  0  0
 19 20  4  0  0  0  0
 20 21  1  0  0  0  0
 21 22  1  0  0  0  0
 20 23  4  0  0  0  0
 23 24  4  0  0  0  0
 24 25  4  0  0  0  0
 19 26  4  0  0  0  0
 25 26  4  0  0  0  0
 26 27  1  0  0  0  0
 27 28  1  0  0  0  0
 18 29  4  0  0  0  0
 29 30  1  0  0  0  0
 30 31  2  0  0  0  0
  1 32  4  0  0  0  0
 31 32  1  0  0  0  0
 29 33  4  0  0  0  0
 32 33  4  0  0  0  0
 14 34  4  0  0  0  0
 17 34  4  0  0  0  0
  7 35  1  0  0  0  0
 35 36  4  0  0  0  0
 36 37  1  0  0  0  0
 37 38  1  0  0  0  0
 36 39  4  0  0  0  0
 39 40  4  0  0  0  0
 40 41  4  0  0  0  0
 35 42  4  0  0  0  0
 41 42  4  0  0  0  0
 42 43  1  0  0  0  0
 43 44  1  0  0  0  0
  1 45  1  0  0  0  0
  3 46  1  0  0  0  0
  4 47  1  0  0  0  0
  6 48  1  0  0  0  0
  9 49  1  0  0  0  0
 10 50  1  0  0  0  0
 15 51  1  0  0  0  0
 16 52  1  0  0  0  0
 22 53  1  0  0  0  0
 22 54  1  0  0  0  0
 22 55  1  0  0  0  0
 23 56  1  0  0  0  0
 24 57  1  0  0  0  0
 25 58  1  0  0  0  0
 28 59  1  0  0  0  0
 28 60  1  0  0  0  0
 28 61  1  0  0  0  0
 30 62  1  0  0  0  0
 31 63  1  0  0  0  0
 34 64  1  0  0  0  0
 38 65  1  0  0  0  0
 38 66  1  0  0  0  0
 38 67  1  0  0  0  0
 39 68  1  0  0  0  0
 40 69  1  0  0  0  0
 41 70  1  0  0  0  0
 44 71  1  0  0  0  0
 44 72  1  0  0  0  0
 44 73  1  0  0  0  0
 74 75  4  0  0  0  0
 75 76  4  0  0  0  0
 76 77  2  0  0  0  0
 77 78  4  0  0  0  0
 75 79  4  0  0  0  0
 78 79  4  0  0  0  0
 78 80  4  0  0  0  0
 80 81  4  0  0  0  0
 81 82  1  0  0  0  0
 82 83  2  0  0  0  0
 81 84  4  0  0  0  0
 83 85  1  0  0  0  0
 84 85  4  0  0  0  0
 85 86  4  0  0  0  0
 86 87  4  0  0  0  0
 87 88  4  0  0  0  0
 88 89  2  0  0  0  0
 89 90  4  0  0  0  0
 90 91  4  0  0  0  0
 91 92  1  0  0  0  0
 92 93  4  0  0  0  0
 93 94  1  0  0  0  0
 94 95  1  0  0  0  0
 93 96  4  0  0  0  0
 96 97  4  0  0  0  0
 97 98  4  0  0  0  0
 92 99  4  0  0  0  0
 98 99  4  0  0  0  0
 99100  1  0  0  0  0
100101  1  0  0  0  0
 91102  4  0  0  0  0
102103  1  0  0  0  0
103104  2  0  0  0  0
 74105  4  0  0  0  0
104105  1  0  0  0  0
102106  4  0  0  0  0
105106  4  0  0  0  0
 87107  4  0  0  0  0
 90107  4  0  0  0  0
 80108  1  0  0  0  0
108109  4  0  0  0  0
109110  1  0  0  0  0
110111  1  0  0  0  0
109112  4  0  0  0  0
112113  4  0  0  0  0
113114  4  0  0  0  0
108115  4  0  0  0  0
114115  4  0  0  0  0
115116  1  0  0  0  0
116117  1  0  0  0  0
 74118  1  0  0  0  0
 76119  1  0  0  0  0
 77120  1  0  0  0  0
 79121  1  0  0  0  0
 82122  1  0  0  0  0
 83123  1  0  0  0  0
 88124  1  0  0  0  0
 89125  1  0  0  0  0
 95126  1  0  0  0  0
 95127  1  0  0  0  0
 95128  1  0  0  0  0
 96129  1  0  0  0  0
 97130  1  0  0  0  0
 98131  1  0  0  0  0
101132  1  0  0  0  0
101133  1  0  0  0  0
101134  1  0  0  0  0
103135  1  0  0  0  0
104136  1  0  0  0  0
107137  1  0  0  0  0
111138  1  0  0  0  0
111139  1  0  0  0  0
111140  1  0  0  0  0
112141  1  0  0  0  0
113142  1  0  0  0  0
114143  1  0  0  0  0
117144  1  0  0  0  0
117145  1  0  0  0  0
117146  1  0  0  0  0
 13147  4  0  0  0  0
147148  3  0  0  0  0
148149  4  0  0  0  0
149150  3  0  0  0  0
150151  4  0  0  0  0
151152  3  0  0  0  0
152153  4  0  0  0  0
153154  3  0  0  0  0
155156  3  0  0  0  0
156157  4  0  0  0  0
157158  3  0  0  0  0
158159  4  0  0  0  0
159160  3  0  0  0  0
160161  4  0  0  0  0
161162  3  0  0  0  0
163164  3  0  0  0  0
164165  4  0  0  0  0
165166  3  0  0  0  0
166167  4  0  0  0  0
167168  3  0  0  0  0
168169  4  0  0  0  0
169170  3  0  0  0  0
171172  3  0  0  0  0
172173  4  0  0  0  0
173174  3  0  0  0  0
174175  4  0  0  0  0
175176  3  0  0  0  0
176177  4  0  0  0  0
 86178  4  0  0  0  0
177178  3  0  0  0  0
154179  4  0  0  0  0
179180  4  0  0  0  0
180181  4  0  0  0  0
181182  2  0  0  0  0
182183  4  0  0  0  0
180184  4  0  0  0  0
183184  4  0  0  0  0
183185  4  0  0  0  0
185186  4  0  0  0  0
186187  1  0  0  0  0
187188  2  0  0  0  0
186189  4  0  0  0  0
188190  1  0  0  0  0
189190  4  0  0  0  0
155191  4  0  0  0  0
190191  4  0  0  0  0
191192  4  0  0  0  0
192193  4  0  0  0  0
193194  2  0  0  0  0
194195  4  0  0  0  0
195196  4  0  0  0  0
196197  1  0  0  0  0
197198  4  0  0  0  0
198199  1  0  0  0  0
199200  1  0  0  0  0
198201  4  0  0  0  0
201202  4  0  0  0  0
202203  4  0  0  0  0
197204  4  0  0  0  0
203204  4  0  0  0  0
204205  1  0  0  0  0
205206  1  0  0  0  0
196207  4  0  0  0  0
207208  1  0  0  0  0
208209  2  0  0  0  0
179210  4  0  0  0  0
209210  1  0  0  0  0
207211  4  0  0  0  0
210211  4  0  0  0  0
192212  4  0  0  0  0
195212  4  0  0  0  0
185213  1  0  0  0  0
213214  4  0  0  0  0
214215  1  0  0  0  0
215216  1  0  0  0  0
214217  4  0  0  0  0
217218  4  0  0  0  0
218219  4  0  0  0  0
213220  4  0  0  0  0
219220  4  0  0  0  0
220221  1  0  0  0  0
221222  1  0  0  0  0
181223  1  0  0  0  0
182224  1  0  0  0  0
184225  1  0  0  0  0
187226  1  0  0  0  0
188227  1  0  0  0  0
193228  1  0  0  0  0
194229  1  0  0  0  0
200230  1  0  0  0  0
200231  1  0  0  0  0
200232  1  0  0  0  0
201233  1  0  0  0  0
202234  1  0  0  0  0
203235  1  0  0  0  0
206236  1  0  0  0  0
206237  1  0  0  0  0
206238  1  0  0  0  0
208239  1  0  0  0  0
209240  1  0  0  0  0
212241  1  0  0  0  0
216242  1  0  0  0  0
216243  1  0  0  0  0
216244  1  0  0  0  0
217245  1  0  0  0  0
218246  1  0  0  0  0
219247  1  0  0  0  0
222248  1  0  0  0  0
222249  1  0  0  0  0
222250  1  0  0  0  0
162251  4  0  0  0  0
251252  4  0  0  0  0
252253  4  0  0  0  0
253254  2  0  0  0  0
254255  4  0  0  0  0
252256  4  0  0  0  0
255256  4  0  0  0  0
255257  4  0  0  0  0
257258  4  0  0  0  0
258259  1  0  0  0  0
259260  2  0  0  0  0
258261  4  0  0  0  0
260262  1  0  0  0  0
261262  4  0  0  0  0
163263  4  0  0  0  0
262263  4  0  0  0  0
263264  4  0  0  0  0
264265  4  0  0  0  0
265266  2  0  0  0  0
266267  4  0  0  0  0
267268  4  0  0  0  0
268269  1  0  0  0  0
269270  4  0  0  0  0
270271  1  0  0  0  0
271272  1  0  0  0  0
270273  4  0  0  0  0
273274  4  0  0  0  0
274275  4  0  0  0  0
269276  4  0  0  0  0
275276  4  0  0  0  0
276277  1  0  0  0  0
277278  1  0  0  0  0
268279  4  0  0  0  0
279280  1  0  0  0  0
280281  2  0  0  0  0
251282  4  0  0  0  0
281282  1  0  0  0  0
279283  4  0  0  0  0
282283  4  0  0  0  0
264284  4  0  0  0  0
267284  4  0  0  0  0
257285  1  0  0  0  0
285286  4  0  0  0  0
286287  1  0  0  0  0
287288  1  0  0  0  0
286289  4  0  0  0  0
289290  4  0  0  0  0
290291  4  0  0  0  0
285292  4  0  0  0  0
291292  4  0  0  0  0
292293  1  0  0  0  0
293294  1  0  0  0  0
253295  1  0  0  0  0
254296  1  0  0  0  0
256297  1  0  0  0  0
259298  1  0  0  0  0
260299  1  0  0  0  0
265300  1  0  0  0  0
266301  1  0  0  0  0
272302  1  0  0  0  0
272303  1  0  0  0  0
272304  1  0  0  0  0
273305  1  0  0  0  0
274306  1  0  0  0  0
275307  1  0  0  0  0
278308  1  0  0  0  0
278309  1  0  0  0  0
278310  1  0  0  0  0
280311  1  0  0  0  0
281312  1  0  0  0  0
284313  1  0  0  0  0
288314  1  0  0  0  0
288315  1  0  0  0  0
288316  1  0  0  0  0
289317  1  0  0  0  0
290318  1  0  0  0  0
291319  1  0  0  0  0
294320  1  0  0  0  0
294321  1  0  0  0  0
294322  1  0  0  0  0
170323  4  0  0  0  0
323324  4  0  0  0  0
324325  4  0  0  0  0
325326  2  0  0  0  0
326327  4  0  0  0  0
324328  4  0  0  0  0
327328  4  0  0  0  0
327329  4  0  0  0  0
329330  4  0  0  0  0
330331  1  0  0  0  0
331332  2  0  0  0  0
330333  4  0  0  0  0
332334  1  0  0  0  0
333334  4  0  0  0  0
171335  4  0  0  0  0
334335  4  0  0  0  0
335336  4  0  0  0  0
336337  4  0  0  0  0
337338  2  0  0  0  0
338339  4  0  0  0  0
339340  4  0  0  0  0
340341  1  0  0  0  0
341342  4  0  0  0  0
342343  1  0  0  0  0
343344  1  0  0  0  0
342345  4  0  0  0  0
345346  4  0  0  0  0
346347  4  0  0  0  0
341348  4  0  0  0  0
347348  4  0  0  0  0
348349  1  0  0  0  0
349350  1  0  0  0  0
340351  4  0  0  0  0
351352  1  0  0  0  0
352353  2  0  0  0  0
323354  4  0  0  0  0
353354  1  0  0  0  0
351355  4  0  0  0  0
354355  4  0  0  0  0
336356  4  0  0  0  0
339356  4  0  0  0  0
329357  1  0  0  0  0
357358  4  0  0  0  0
358359  1  0  0  0  0
359360  1  0  0  0  0
358361  4  0  0  0  0
361362  4  0  0  0  0
362363  4  0  0  0  0
357364  4  0  0  0  0
363364  4  0  0  0  0
364365  1  0  0  0  0
365366  1  0  0  0  0
325367  1  0  0  0  0
326368  1  0  0  0  0
328369  1  0  0  0  0
331370  1  0  0  0  0
332371  1  0  0  0  0
337372  1  0  0  0  0
338373  1  0  0  0  0
344374  1  0  0  0  0
344375  1  0  0  0  0
344376  1  0  0  0  0
345377  1  0  0  0  0
346378  1  0  0  0  0
347379  1  0  0  0  0
350380  1  0  0  0  0
350381  1  0  0  0  0
350382  1  0  0  0  0
352383  1  0  0  0  0
353384  1  0  0  0  0
356385  1  0  0  0  0
360386  1  0  0  0  0
360387  1  0  0  0  0
360388  1  0  0  0  0
361389  1  0  0  0  0
362390  1  0  0  0  0
363391  1  0  0  0  0
366392  1  0  0  0  0
366393  1  0  0  0  0
366394  1  0  0  0  0
M  END
