380

C 67.890434 -0.031524 -0.028792
C 68.615622 -1.410295 0.014391
C 67.997978 -2.636192 0.108019
C 69.019902 -3.619094 0.079163
C 70.228283 -2.959301 -0.031330
N 69.971238 -1.611760 -0.039054
C 71.662004 -3.629384 -0.153056
C 71.714084 -5.115267 -0.300543
C 71.643443 -5.707523 -1.582700
C 71.533273 -4.861604 -2.824489
C 71.681812 -7.106725 -1.702009
C 71.796341 -7.925768 -0.573674
C 71.800492 -9.417189 -0.716081
C 71.849884 -7.334996 0.693207
C 71.815379 -5.938990 0.844883
C 71.885021 -5.342309 2.226476
C 72.788268 -2.864801 -0.150051
C 74.101177 -3.454232 -0.310807
C 75.002656 -2.480264 -0.295054
N 72.977844 -1.512384 -0.024547
C 74.314951 -1.217184 -0.106590
C 74.986628 -0.036123 -0.039858
C 74.214622 1.331818 0.209562
C 74.785028 2.522122 0.618813
C 73.757569 3.494113 0.677129
C 72.582933 2.870415 0.315309
N 72.863875 1.546634 0.065215
C 71.155510 3.562111 0.210612
C 71.098061 5.053249 0.204698
C 71.233235 5.763109 -1.010456
C 71.429419 5.036973 -2.315711
C 71.173763 7.166742 -1.003122
C 70.992323 7.876337 0.188593
C 70.888483 9.371011 0.177069
C 70.848366 7.168285 1.386529
C 70.908949 5.765115 1.412303
C 70.743054 5.042685 2.723686
C 70.036120 2.796890 0.118595
C 68.706786 3.372717 0.014323
C 67.824983 2.380101 -0.044360
C 68.555638 1.137790 0.012223
N 69.879461 1.438502 0.101331
H 66.809375 -0.030693 -0.103580
H 66.934672 -2.804351 0.177826
H 68.889123 -4.689737 0.120016
H 70.676700 -0.878675 -0.074004
H 70.631906 -4.242104 -2.793012
H 71.464991 -5.483326 -3.723968
H 72.416528 -4.225760 -2.937153
H 71.623280 -7.557112 -2.689743
H 70.775883 -9.799819 -0.682409
H 72.259155 -9.718485 -1.663636
H 72.379434 -9.885698 0.086745
H 71.921199 -7.963923 1.577021
H 70.983810 -4.759883 2.441206
H 71.955699 -6.122178 2.992620
H 72.769885 -4.706895 2.329920
H 74.317663 -4.500689 -0.431919
H 76.061686 -2.630600 -0.396749
H 75.828273 2.684290 0.842780
H 73.862830 4.533881 0.949256
H 72.169267 0.837400 -0.157104
H 71.513261 5.739536 -3.152157
H 72.351760 4.448340 -2.296507
H 70.576567 4.384059 -2.526055
H 71.266608 7.706719 -1.942036
H 71.331708 9.798126 1.082171
H 69.838263 9.672684 0.121606
H 71.421929 9.797104 -0.678563
H 70.684480 7.710298 2.314468
H 70.725430 5.746209 3.563511
H 69.799833 4.488485 2.740659
H 71.577655 4.358039 2.901428
H 68.473229 4.422085 -0.008796
H 66.757849 2.479605 -0.123025
C 119.258854 -0.040154 -0.028572
C 118.533666 1.339029 -0.055526
C 119.151310 2.568100 -0.024329
C 118.129386 3.548265 -0.103107
C 116.921005 2.883709 -0.179921
N 117.178050 1.537517 -0.119142
C 115.487284 3.546738 -0.335549
C 115.435204 5.023204 -0.558371
C 115.505845 5.549525 -1.868974
C 115.616014 4.641581 -3.066161
C 115.467476 6.940854 -2.059248
C 115.352947 7.816190 -0.974002
C 115.348796 9.298445 -1.192032
C 115.299403 7.290575 0.321269
C 115.333909 5.904083 0.543706
C 115.264267 5.378397 1.953842
C 114.361020 2.783297 -0.293685
C 113.048111 3.363794 -0.484194
C 112.146632 2.391886 -0.418956
N 114.171444 1.439008 -0.099603
C 112.834337 1.140018 -0.166535
C 112.162660 -0.036123 -0.039858
C 112.934666 -1.389619 0.278770
C 112.364260 -2.557583 0.747993
C 113.391719 -3.525353 0.855639
C 114.566355 -2.920853 0.462584
N 114.285413 -1.611494 0.145529
C 115.993778 -3.616975 0.393180
C 116.051227 -5.106487 0.463067
C 115.916053 -5.877194 -0.714436
C 115.719869 -5.218340 -2.054911
C 115.975525 -7.278639 -0.635766
C 116.156965 -7.926744 0.590475
C 116.260805 -9.420072 0.654938
C 116.300922 -7.158719 1.750874
C 116.240339 -5.756053 1.705294
C 116.406234 -4.967901 2.978261
C 117.113168 -2.857421 0.262388
C 118.442502 -3.437804 0.187518
C 119.324305 -2.449453 0.078459
C 118.593650 -1.205872 0.071824
N 117.269827 -1.501666 0.176102
H 120.339913 -0.044786 -0.103221
H 120.214616 2.739590 0.036840
H 118.260165 4.619601 -0.116727
H 116.472588 0.803604 -0.116786
H 116.517382 4.024482 -3.003237
H 115.684297 5.216781 -3.996079
H 114.732760 4.000833 -3.146361
H 115.526008 7.340454 -3.068598
H 116.373405 9.682292 -1.177851
H 114.890133 9.551189 -2.153676
H 114.769854 9.807154 -0.414056
H 115.228089 7.963612 1.171973
H 116.165478 4.807638 2.197898
H 115.193589 6.196200 2.679355
H 114.379403 4.749063 2.089449
H 112.831625 4.402743 -0.658339
H 111.087602 2.536859 -0.528161
H 111.321015 -2.708157 0.979913
H 113.286458 -4.549946 1.180264
H 114.980021 -0.914477 -0.112553
H 115.636027 -5.962511 -2.854566
H 114.797528 -4.629492 -2.065652
H 116.572721 -4.576961 -2.298171
H 115.882680 -7.865642 -1.546021
H 115.817580 -9.800630 1.580580
H 117.311025 -9.724174 0.614880
H 115.727359 -9.889105 -0.177930
H 116.464808 -7.652865 2.705163
H 116.423858 -5.627828 3.852760
H 117.349455 -4.413554 2.967044
H 115.571633 -4.275105 3.120974
H 118.676059 -4.486990 0.217768
H 120.391439 -2.552827 0.004953
C 76.909557 -0.036123 -0.039858
C 78.131474 -0.036123 -0.039858
C 87.612309 -0.036123 -0.039858
C 88.834227 -0.036123 -0.039858
C 98.315061 -0.036123 -0.039858
C 99.536979 -0.036123 -0.039858
C 109.017813 -0.036123 -0.039858
C 110.239731 -0.036123 -0.039858
C 79.281453 0.025709 0.028367
C 80.069841 -0.759288 1.158377
C 79.542333 -1.256997 2.332671
C 80.577846 -1.960016 2.998311
C 81.709376 -1.859183 2.217822
N 81.407874 -1.069768 1.135476
C 83.108442 -2.550577 2.498031
C 83.115812 -3.782618 3.341504
C 82.856025 -5.043586 2.756144
C 82.573523 -5.172402 1.281820
C 82.875584 -6.197446 3.557708
C 83.138627 -6.121081 4.929349
C 83.200034 -7.365710 5.760652
C 83.405617 -4.872702 5.501285
C 83.387153 -3.699922 4.727457
C 83.686801 -2.377925 5.385231
C 84.241026 -2.052024 1.934262
C 85.532836 -2.678884 2.125878
C 86.441641 -1.979808 1.455764
N 84.447171 -0.968779 1.124418
C 85.774890 -0.872264 0.800225
C 86.441790 0.025709 0.028367
C 85.653350 1.214274 -0.663317
C 86.177847 2.428748 -1.056689
C 85.142695 3.146909 -1.706894
C 84.013441 2.355623 -1.678588
N 84.316946 1.211782 -0.982514
C 82.614468 2.688756 -2.347450
C 82.608678 3.636182 -3.501525
C 82.878206 3.164750 -4.807212
C 83.160350 1.707216 -5.066131
C 82.881411 4.067992 -5.883179
C 82.611352 5.426828 -5.687619
C 82.651385 6.381579 -6.841950
C 82.358894 5.890482 -4.392216
C 82.350196 5.012023 -3.295662
C 82.063767 5.552035 -1.918695
C 81.482426 2.084349 -1.897748
C 80.190710 2.327121 -2.505606
C 79.282397 1.603067 -1.861768
C 79.949082 0.861836 -0.809669
N 81.277378 1.188505 -0.884488
H 78.521040 -1.150349 2.664608
H 80.502220 -2.498197 3.931229
H 82.077672 -0.744541 0.443904
H 81.682702 -4.600880 1.006820
H 83.429687 -4.829043 0.694650
H 82.384918 -6.214028 1.003722
H 82.686751 -7.165028 3.099566
H 82.871831 -7.166982 6.785985
H 82.542182 -8.140504 5.354241
H 84.224418 -7.748455 5.785529
H 83.634322 -4.805320 6.561942
H 82.888301 -1.654978 5.191707
H 83.762246 -2.485607 6.473334
H 84.641032 -1.978489 5.028263
H 85.729377 -3.562108 2.707688
H 87.490060 -2.213528 1.418599
H 87.197856 2.755101 -0.917613
H 85.218224 4.122357 -2.163747
H 83.649139 0.492832 -0.718385
H 83.332260 1.520082 -6.130794
H 82.308788 1.090165 -4.764663
H 84.059654 1.386566 -4.532514
H 83.094738 3.700427 -6.884029
H 82.322804 5.892295 -7.765005
H 83.669659 6.756149 -6.981402
H 81.982909 7.231882 -6.670757
H 82.164600 6.947519 -4.227967
H 82.901857 5.356269 -1.241671
H 81.916745 6.638528 -1.941826
H 81.147995 5.111353 -1.513580
H 79.994528 2.979729 -3.337665
H 78.234237 1.585899 -2.097408
C 89.984205 0.025709 0.028367
C 90.772593 -0.759288 1.158377
C 90.245086 -1.256997 2.332671
C 91.280598 -1.960016 2.998311
C 92.412128 -1.859183 2.217822
N 92.110626 -1.069768 1.135476
C 93.811194 -2.550577 2.498031
C 93.818564 -3.782618 3.341504
C 93.558777 -5.043586 2.756144
C 93.276275 -5.172402 1.281820
C 93.578337 -6.197446 3.557708
C 93.841380 -6.121081 4.929349
C 93.902786 -7.365710 5.760652
C 94.108370 -4.872702 5.501285
C 94.089905 -3.699922 4.727457
C 94.389554 -2.377925 5.385231
C 94.943778 -2.052024 1.934262
C 96.235589 -2.678884 2.125878
C 97.144393 -1.979808 1.455764
N 95.149923 -0.968779 1.124418
C 96.477642 -0.872264 0.800225
C 97.144542 0.025709 0.028367
C 96.356102 1.214274 -0.663317
C 96.880600 2.428748 -1.056689
C 95.845448 3.146909 -1.706894
C 94.716193 2.355623 -1.678588
N 95.019698 1.211782 -0.982514
C 93.317220 2.688756 -2.347450
C 93.311430 3.636182 -3.501525
C 93.580958 3.164750 -4.807212
C 93.863103 1.707216 -5.066131
C 93.584164 4.067992 -5.883179
C 93.314104 5.426828 -5.687619
C 93.354138 6.381579 -6.841950
C 93.061646 5.890482 -4.392216
C 93.052948 5.012023 -3.295662
C 92.766520 5.552035 -1.918695
C 92.185178 2.084349 -1.897748
C 90.893462 2.327121 -2.505606
C 89.985149 1.603067 -1.861768
C 90.651835 0.861836 -0.809669
N 91.980131 1.188505 -0.884488
H 89.223792 -1.150349 2.664608
H 91.204972 -2.498197 3.931229
H 92.780424 -0.744541 0.443904
H 92.385454 -4.600880 1.006820
H 94.132439 -4.829043 0.694650
H 93.087670 -6.214028 1.003722
H 93.389504 -7.165028 3.099566
H 93.574583 -7.166982 6.785985
H 93.244934 -8.140504 5.354241
H 94.927170 -7.748455 5.785529
H 94.337075 -4.805320 6.561942
H 93.591053 -1.654978 5.191707
H 94.464998 -2.485607 6.473334
H 95.343785 -1.978489 5.028263
H 96.432129 -3.562108 2.707688
H 98.192813 -2.213528 1.418599
H 97.900608 2.755101 -0.917613
H 95.920976 4.122357 -2.163747
H 94.351891 0.492832 -0.718385
H 94.035012 1.520082 -6.130794
H 93.011540 1.090165 -4.764663
H 94.762407 1.386566 -4.532514
H 93.797491 3.700427 -6.884029
H 93.025556 5.892295 -7.765005
H 94.372411 6.756149 -6.981402
H 92.685661 7.231882 -6.670757
H 92.867353 6.947519 -4.227967
H 93.604610 5.356269 -1.241671
H 92.619497 6.638528 -1.941826
H 91.850747 5.111353 -1.513580
H 90.697280 2.979729 -3.337665
H 88.936990 1.585899 -2.097408
C 100.686957 0.025709 0.028367
C 101.475346 -0.759288 1.158377
C 100.947838 -1.256997 2.332671
C 101.983350 -1.960016 2.998311
C 103.114880 -1.859183 2.217822
N 102.813378 -1.069768 1.135476
C 104.513946 -2.550577 2.498031
C 104.521316 -3.782618 3.341504
C 104.261530 -5.043586 2.756144
C 103.979027 -5.172402 1.281820
C 104.281089 -6.197446 3.557708
C 104.544132 -6.121081 4.929349
C 104.605538 -7.365710 5.760652
C 104.811122 -4.872702 5.501285
C 104.792658 -3.699922 4.727457
C 105.092306 -2.377925 5.385231
C 105.646531 -2.052024 1.934262
C 106.938341 -2.678884 2.125878
C 107.847145 -1.979808 1.455764
N 105.852675 -0.968779 1.124418
C 107.180395 -0.872264 0.800225
C 107.847294 0.025709 0.028367
C 107.058854 1.214274 -0.663317
C 107.583352 2.428748 -1.056689
C 106.548200 3.146909 -1.706894
C 105.418945 2.355623 -1.678588
N 105.722451 1.211782 -0.982514
C 104.019972 2.688756 -2.347450
C 104.014183 3.636182 -3.501525
C 104.283711 3.164750 -4.807212
C 104.565855 1.707216 -5.066131
C 104.286916 4.067992 -5.883179
C 104.016857 5.426828 -5.687619
C 104.056890 6.381579 -6.841950
C 103.764399 5.890482 -4.392216
C 103.755700 5.012023 -3.295662
C 103.469272 5.552035 -1.918695
C 102.887930 2.084349 -1.897748
C 101.596214 2.327121 -2.505606
C 100.687902 1.603067 -1.861768
C 101.354587 0.861836 -0.809669
N 102.682883 1.188505 -0.884488
H 99.926544 -1.150349 2.664608
H 101.907724 -2.498197 3.931229
H 103.483176 -0.744541 0.443904
H 103.088207 -4.600880 1.006820
H 104.835191 -4.829043 0.694650
H 103.790422 -6.214028 1.003722
H 104.092256 -7.165028 3.099566
H 104.277335 -7.166982 6.785985
H 103.947686 -8.140504 5.354241
H 105.629922 -7.748455 5.785529
H 105.039827 -4.805320 6.561942
H 104.293806 -1.654978 5.191707
H 105.167750 -2.485607 6.473334
H 106.046537 -1.978489 5.028263
H 107.134881 -3.562108 2.707688
H 108.895565 -2.213528 1.418599
H 108.603360 2.755101 -0.917613
H 106.623729 4.122357 -2.163747
H 105.054643 0.492832 -0.718385
H 104.737764 1.520082 -6.130794
H 103.714292 1.090165 -4.764663
H 105.465159 1.386566 -4.532514
H 104.500243 3.700427 -6.884029
H 103.728308 5.892295 -7.765005
H 105.075163 6.756149 -6.981402
H 103.388413 7.231882 -6.670757
H 103.570105 6.947519 -4.227967
H 104.307362 5.356269 -1.241671
H 103.322250 6.638528 -1.941826
H 102.553499 5.111353 -1.513580
H 101.400032 2.979729 -3.337665
H 99.639742 1.585899 -2.097408
