 xtb: 6.5.1 (b24c23e)
          07302209573D

262301  0     0  0            999 V2000
   39.7725    0.0149    0.0362 Zn  0  0  0  0  0  0  0  0  0  0  0  0
   36.3649    0.0980    0.0976 C   0  0  0  0  0  0  0  0  0  0  0  0
   37.0013    1.2174   -0.4256 C   0  0  0  0  0  0  0  0  0  0  0  0
   36.3343    2.3680   -0.9664 C   0  0  0  0  0  0  0  0  0  0  0  0
   37.2989    3.2311   -1.3736 C   0  0  0  0  0  0  0  0  0  0  0  0
   38.5680    2.6232   -1.0744 C   0  0  0  0  0  0  0  0  0  0  0  0
   38.3521    1.4002   -0.5097 N   0  0  0  0  0  0  0  0  0  0  0  0
   39.8228    3.1874   -1.3406 C   0  0  0  0  0  0  0  0  0  0  0  0
   39.8462    4.5456   -1.9365 C   0  0  0  0  0  0  0  0  0  0  0  0
   40.4310    4.7636   -3.1864 C   0  0  0  0  0  0  0  0  0  0  0  0
   40.4552    6.0278   -3.7484 C   0  0  0  0  0  0  0  0  0  0  0  0
   39.9050    7.1116   -3.0596 C   0  0  0  0  0  0  0  0  0  0  0  0
   39.8936    8.3712   -3.6351 N   0  0  0  0  0  0  0  0  0  0  0  0
   39.3139    6.9016   -1.8113 C   0  0  0  0  0  0  0  0  0  0  0  0
   39.2855    5.6321   -1.2611 C   0  0  0  0  0  0  0  0  0  0  0  0
   41.0569    2.5765   -1.0912 C   0  0  0  0  0  0  0  0  0  0  0  0
   42.3407    3.1841   -1.3069 C   0  0  0  0  0  0  0  0  0  0  0  0
   43.2810    2.2776   -0.9356 C   0  0  0  0  0  0  0  0  0  0  0  0
   41.2423    1.3193   -0.5793 N   0  0  0  0  0  0  0  0  0  0  0  0
   42.5824    1.1118   -0.4814 C   0  0  0  0  0  0  0  0  0  0  0  0
   43.2057   -0.0627   -0.0118 C   0  0  0  0  0  0  0  0  0  0  0  0
   42.5437   -1.2109    0.4695 C   0  0  0  0  0  0  0  0  0  0  0  0
   43.2013   -2.4100    0.8974 C   0  0  0  0  0  0  0  0  0  0  0  0
   42.2317   -3.2761    1.2891 C   0  0  0  0  0  0  0  0  0  0  0  0
   40.9711   -2.6092    1.1149 C   0  0  0  0  0  0  0  0  0  0  0  0
   41.1989   -1.3584    0.6042 N   0  0  0  0  0  0  0  0  0  0  0  0
   39.7180   -3.1624    1.4017 C   0  0  0  0  0  0  0  0  0  0  0  0
   39.6938   -4.5253    1.9864 C   0  0  0  0  0  0  0  0  0  0  0  0
   40.3103   -4.7862    3.2126 C   0  0  0  0  0  0  0  0  0  0  0  0
   40.2875   -6.0554    3.7632 C   0  0  0  0  0  0  0  0  0  0  0  0
   39.6562   -7.1019    3.0864 C   0  0  0  0  0  0  0  0  0  0  0  0
   39.5978   -8.3647    3.6521 N   0  0  0  0  0  0  0  0  0  0  0  0
   39.0331   -6.8488    1.8618 C   0  0  0  0  0  0  0  0  0  0  0  0
   39.0526   -5.5744    1.3231 C   0  0  0  0  0  0  0  0  0  0  0  0
   38.4836   -2.5358    1.1833 C   0  0  0  0  0  0  0  0  0  0  0  0
   37.1980   -3.0817    1.5286 C   0  0  0  0  0  0  0  0  0  0  0  0
   36.2626   -2.1704    1.1603 C   0  0  0  0  0  0  0  0  0  0  0  0
   36.9648   -1.0521    0.5967 C   0  0  0  0  0  0  0  0  0  0  0  0
   38.3072   -1.3013    0.6301 N   0  0  0  0  0  0  0  0  0  0  0  0
   35.2796    0.1246    0.1179 H   0  0  0  0  0  0  0  0  0  0  0  0
   35.2638    2.4858   -1.0308 H   0  0  0  0  0  0  0  0  0  0  0  0
   37.1664    4.1908   -1.8472 H   0  0  0  0  0  0  0  0  0  0  0  0
   40.8533    3.9259   -3.7307 H   0  0  0  0  0  0  0  0  0  0  0  0
   40.9026    6.1820   -4.7244 H   0  0  0  0  0  0  0  0  0  0  0  0
   40.5996    8.5229   -4.3378 H   0  0  0  0  0  0  0  0  0  0  0  0
   39.7990    9.1344   -2.9841 H   0  0  0  0  0  0  0  0  0  0  0  0
   38.8818    7.7384   -1.2734 H   0  0  0  0  0  0  0  0  0  0  0  0
   38.8416    5.4808   -0.2831 H   0  0  0  0  0  0  0  0  0  0  0  0
   42.5013    4.1827   -1.6802 H   0  0  0  0  0  0  0  0  0  0  0  0
   44.3538    2.3854   -0.9575 H   0  0  0  0  0  0  0  0  0  0  0  0
   44.2684   -2.5661    0.8875 H   0  0  0  0  0  0  0  0  0  0  0  0
   42.3574   -4.2839    1.6510 H   0  0  0  0  0  0  0  0  0  0  0  0
   40.7950   -3.9772    3.7484 H   0  0  0  0  0  0  0  0  0  0  0  0
   40.7604   -6.2426    4.7212 H   0  0  0  0  0  0  0  0  0  0  0  0
   40.3192   -8.5610    4.3275 H   0  0  0  0  0  0  0  0  0  0  0  0
   39.4384   -9.1153    2.9991 H   0  0  0  0  0  0  0  0  0  0  0  0
   38.5380   -7.6564    1.3334 H   0  0  0  0  0  0  0  0  0  0  0  0
   38.5825   -5.3903    0.3632 H   0  0  0  0  0  0  0  0  0  0  0  0
   37.0361   -4.0353    2.0052 H   0  0  0  0  0  0  0  0  0  0  0  0
   35.1908   -2.2354    1.2648 H   0  0  0  0  0  0  0  0  0  0  0  0
   95.6162   -0.0162    0.0394 Zn  0  0  0  0  0  0  0  0  0  0  0  0
   99.0231    0.0002    0.1590 C   0  0  0  0  0  0  0  0  0  0  0  0
   98.3872   -1.0570    0.7990 C   0  0  0  0  0  0  0  0  0  0  0  0
   99.0546   -2.1411    1.4628 C   0  0  0  0  0  0  0  0  0  0  0  0
   98.0903   -2.9610    1.9517 C   0  0  0  0  0  0  0  0  0  0  0  0
   96.8209   -2.3808    1.6030 C   0  0  0  0  0  0  0  0  0  0  0  0
   97.0365   -1.2334    0.8970 N   0  0  0  0  0  0  0  0  0  0  0  0
   95.5666   -2.9195    1.9187 C   0  0  0  0  0  0  0  0  0  0  0  0
   95.5438   -4.1653    2.7238 C   0  0  0  0  0  0  0  0  0  0  0  0
   94.9691   -5.3321    2.2140 C   0  0  0  0  0  0  0  0  0  0  0  0
   94.9453   -6.4969    2.9607 C   0  0  0  0  0  0  0  0  0  0  0  0
   95.4855   -6.5147    4.2489 C   0  0  0  0  0  0  0  0  0  0  0  0
   95.4974   -7.6879    4.9847 N   0  0  0  0  0  0  0  0  0  0  0  0
   96.0666   -5.3535    4.7645 C   0  0  0  0  0  0  0  0  0  0  0  0
   96.0948   -4.1958    4.0070 C   0  0  0  0  0  0  0  0  0  0  0  0
   94.3325   -2.3792    1.5401 C   0  0  0  0  0  0  0  0  0  0  0  0
   93.0485   -2.9005    1.9190 C   0  0  0  0  0  0  0  0  0  0  0  0
   92.1082   -2.0920    1.3663 C   0  0  0  0  0  0  0  0  0  0  0  0
   94.1470   -1.2568    0.7767 N   0  0  0  0  0  0  0  0  0  0  0  0
   92.8068   -1.0644    0.6524 C   0  0  0  0  0  0  0  0  0  0  0  0
   92.1834   -0.0216   -0.0636 C   0  0  0  0  0  0  0  0  0  0  0  0
   92.8452    1.0184   -0.7481 C   0  0  0  0  0  0  0  0  0  0  0  0
   92.1874    2.0386   -1.5096 C   0  0  0  0  0  0  0  0  0  0  0  0
   93.1568    2.8465   -2.0110 C   0  0  0  0  0  0  0  0  0  0  0  0
   94.4172    2.3340   -1.5499 C   0  0  0  0  0  0  0  0  0  0  0  0
   94.1898    1.2146   -0.7931 N   0  0  0  0  0  0  0  0  0  0  0  0
   95.6701    2.8820   -1.8477 C   0  0  0  0  0  0  0  0  0  0  0  0
   95.6941    4.1249   -2.6570 C   0  0  0  0  0  0  0  0  0  0  0  0
   95.0729    5.2880   -2.1955 C   0  0  0  0  0  0  0  0  0  0  0  0
   95.0961    6.4509   -2.9451 C   0  0  0  0  0  0  0  0  0  0  0  0
   95.7327    6.4708   -4.1886 C   0  0  0  0  0  0  0  0  0  0  0  0
   95.7918    7.6427   -4.9241 N   0  0  0  0  0  0  0  0  0  0  0  0
   96.3603    5.3133   -4.6557 C   0  0  0  0  0  0  0  0  0  0  0  0
   96.3402    4.1574   -3.8951 C   0  0  0  0  0  0  0  0  0  0  0  0
   96.9044    2.3558   -1.4433 C   0  0  0  0  0  0  0  0  0  0  0  0
   98.1894    2.9493   -1.7011 C   0  0  0  0  0  0  0  0  0  0  0  0
   99.1247    2.1408   -1.1421 C   0  0  0  0  0  0  0  0  0  0  0  0
   98.4231    1.0502   -0.5261 C   0  0  0  0  0  0  0  0  0  0  0  0
   97.0811    1.2119   -0.7211 N   0  0  0  0  0  0  0  0  0  0  0  0
  100.1082    0.0065    0.1982 H   0  0  0  0  0  0  0  0  0  0  0  0
  100.1252   -2.2557    1.5316 H   0  0  0  0  0  0  0  0  0  0  0  0
   98.2232   -3.8855    2.4907 H   0  0  0  0  0  0  0  0  0  0  0  0
   94.5544   -5.3282    1.2118 H   0  0  0  0  0  0  0  0  0  0  0  0
   94.5058   -7.3991    2.5493 H   0  0  0  0  0  0  0  0  0  0  0  0
   94.7966   -8.3618    4.7199 H   0  0  0  0  0  0  0  0  0  0  0  0
   95.5835   -7.5631    5.9809 H   0  0  0  0  0  0  0  0  0  0  0  0
   96.4910   -5.3622    5.7626 H   0  0  0  0  0  0  0  0  0  0  0  0
   96.5309   -3.2934    4.4218 H   0  0  0  0  0  0  0  0  0  0  0  0
   92.8877   -3.7661    2.5415 H   0  0  0  0  0  0  0  0  0  0  0  0
   91.0352   -2.1737    1.4383 H   0  0  0  0  0  0  0  0  0  0  0  0
   91.1205    2.1150   -1.6474 H   0  0  0  0  0  0  0  0  0  0  0  0
   93.0310    3.7062   -2.6493 H   0  0  0  0  0  0  0  0  0  0  0  0
   94.5843    5.2833   -1.2272 H   0  0  0  0  0  0  0  0  0  0  0  0
   94.6196    7.3503   -2.5707 H   0  0  0  0  0  0  0  0  0  0  0  0
   95.0681    8.3119   -4.7152 H   0  0  0  0  0  0  0  0  0  0  0  0
   95.9557    7.5172   -5.9103 H   0  0  0  0  0  0  0  0  0  0  0  0
   96.8594    5.3236   -5.6185 H   0  0  0  0  0  0  0  0  0  0  0  0
   96.8139    3.2579   -4.2732 H   0  0  0  0  0  0  0  0  0  0  0  0
   98.3509    3.8747   -2.2306 H   0  0  0  0  0  0  0  0  0  0  0  0
  100.1961    2.2672   -1.1335 H   0  0  0  0  0  0  0  0  0  0  0  0
   44.6097   -0.0880   -0.0230 C   0  0  0  0  0  0  0  0  0  0  0  0
   45.8347   -0.0989   -0.0276 C   0  0  0  0  0  0  0  0  0  0  0  0
   47.1767   -0.1041   -0.0337 C   0  0  0  0  0  0  0  0  0  0  0  0
   48.4080   -0.1020   -0.0339 C   0  0  0  0  0  0  0  0  0  0  0  0
   49.7452   -0.0956   -0.0326 C   0  0  0  0  0  0  0  0  0  0  0  0
   50.9764   -0.0865   -0.0297 C   0  0  0  0  0  0  0  0  0  0  0  0
   52.3182   -0.0768   -0.0255 C   0  0  0  0  0  0  0  0  0  0  0  0
   53.5435   -0.0669   -0.0193 C   0  0  0  0  0  0  0  0  0  0  0  0
   63.2278   -0.0440    0.0026 C   0  0  0  0  0  0  0  0  0  0  0  0
   64.4531   -0.0443   -0.0025 C   0  0  0  0  0  0  0  0  0  0  0  0
   65.7948   -0.0440   -0.0069 C   0  0  0  0  0  0  0  0  0  0  0  0
   67.0262   -0.0390   -0.0059 C   0  0  0  0  0  0  0  0  0  0  0  0
   68.3633   -0.0383   -0.0044 C   0  0  0  0  0  0  0  0  0  0  0  0
   69.5946   -0.0371    0.0003 C   0  0  0  0  0  0  0  0  0  0  0  0
   70.9362   -0.0363    0.0028 C   0  0  0  0  0  0  0  0  0  0  0  0
   72.1615   -0.0350    0.0082 C   0  0  0  0  0  0  0  0  0  0  0  0
   81.8460   -0.0225   -0.0232 C   0  0  0  0  0  0  0  0  0  0  0  0
   83.0710   -0.0217   -0.0446 C   0  0  0  0  0  0  0  0  0  0  0  0
   84.4128   -0.0206   -0.0663 C   0  0  0  0  0  0  0  0  0  0  0  0
   85.6438   -0.0185   -0.0847 C   0  0  0  0  0  0  0  0  0  0  0  0
   86.9811   -0.0193   -0.0973 C   0  0  0  0  0  0  0  0  0  0  0  0
   88.2122   -0.0155   -0.1046 C   0  0  0  0  0  0  0  0  0  0  0  0
   89.5543   -0.0159   -0.1015 C   0  0  0  0  0  0  0  0  0  0  0  0
   90.7794   -0.0178   -0.0917 C   0  0  0  0  0  0  0  0  0  0  0  0
   58.3860   -0.0485    0.0083 Zn  0  0  0  0  0  0  0  0  0  0  0  0
   54.9471   -0.0629   -0.0188 C   0  0  0  0  0  0  0  0  0  0  0  0
   55.5884    1.1447   -0.3644 C   0  0  0  0  0  0  0  0  0  0  0  0
   54.9073    2.3662   -0.6729 C   0  0  0  0  0  0  0  0  0  0  0  0
   55.8614    3.2990   -0.9264 C   0  0  0  0  0  0  0  0  0  0  0  0
   57.1350    2.6511   -0.7874 C   0  0  0  0  0  0  0  0  0  0  0  0
   56.9316    1.3429   -0.4357 N   0  0  0  0  0  0  0  0  0  0  0  0
   58.3798    3.2688   -0.9590 C   0  0  0  0  0  0  0  0  0  0  0  0
   58.3785    4.6962   -1.3621 C   0  0  0  0  0  0  0  0  0  0  0  0
   57.7894    5.0998   -2.5629 C   0  0  0  0  0  0  0  0  0  0  0  0
   57.7885    6.4309   -2.9411 C   0  0  0  0  0  0  0  0  0  0  0  0
   58.3670    7.3956   -2.1123 C   0  0  0  0  0  0  0  0  0  0  0  0
   58.4024    8.7228   -2.5049 N   0  0  0  0  0  0  0  0  0  0  0  0
   58.9622    7.0000   -0.9113 C   0  0  0  0  0  0  0  0  0  0  0  0
   58.9672    5.6655   -0.5459 C   0  0  0  0  0  0  0  0  0  0  0  0
   59.6263    2.6571   -0.7806 C   0  0  0  0  0  0  0  0  0  0  0  0
   60.8972    3.2807   -1.0209 C   0  0  0  0  0  0  0  0  0  0  0  0
   61.8548    2.3578   -0.7457 C   0  0  0  0  0  0  0  0  0  0  0  0
   59.8348    1.3643   -0.3787 N   0  0  0  0  0  0  0  0  0  0  0  0
   61.1787    1.1606   -0.3442 C   0  0  0  0  0  0  0  0  0  0  0  0
   61.8244   -0.0404    0.0157 C   0  0  0  0  0  0  0  0  0  0  0  0
   61.1827   -1.2427    0.3789 C   0  0  0  0  0  0  0  0  0  0  0  0
   61.8636   -2.4598    0.7062 C   0  0  0  0  0  0  0  0  0  0  0  0
   60.9095   -3.3866    0.9799 C   0  0  0  0  0  0  0  0  0  0  0  0
   59.6360   -2.7401    0.8310 C   0  0  0  0  0  0  0  0  0  0  0  0
   59.8396   -1.4381    0.4571 N   0  0  0  0  0  0  0  0  0  0  0  0
   58.3918   -3.3563    1.0081 C   0  0  0  0  0  0  0  0  0  0  0  0
   58.3945   -4.7736    1.4462 C   0  0  0  0  0  0  0  0  0  0  0  0
   57.8221   -5.7681    0.6497 C   0  0  0  0  0  0  0  0  0  0  0  0
   57.8241   -7.0911    1.0551 C   0  0  0  0  0  0  0  0  0  0  0  0
   58.3890   -7.4475    2.2823 C   0  0  0  0  0  0  0  0  0  0  0  0
   58.4274   -8.7749    2.6739 N   0  0  0  0  0  0  0  0  0  0  0  0
   58.9677   -6.4595    3.0829 C   0  0  0  0  0  0  0  0  0  0  0  0
   58.9699   -5.1405    2.6652 C   0  0  0  0  0  0  0  0  0  0  0  0
   57.1450   -2.7513    0.8091 C   0  0  0  0  0  0  0  0  0  0  0  0
   55.8735   -3.3777    1.0379 C   0  0  0  0  0  0  0  0  0  0  0  0
   54.9161   -2.4606    0.7433 C   0  0  0  0  0  0  0  0  0  0  0  0
   55.5930   -1.2630    0.3441 C   0  0  0  0  0  0  0  0  0  0  0  0
   56.9370   -1.4622    0.3952 N   0  0  0  0  0  0  0  0  0  0  0  0
   53.8360    2.4906   -0.6823 H   0  0  0  0  0  0  0  0  0  0  0  0
   55.7150    4.3387   -1.1711 H   0  0  0  0  0  0  0  0  0  0  0  0
   57.3466    4.3558   -3.2164 H   0  0  0  0  0  0  0  0  0  0  0  0
   57.3380    6.7303   -3.8812 H   0  0  0  0  0  0  0  0  0  0  0  0
   57.6955    8.9883   -3.1722 H   0  0  0  0  0  0  0  0  0  0  0  0
   58.5229    9.3845   -1.7546 H   0  0  0  0  0  0  0  0  0  0  0  0
   59.4167    7.7435   -0.2654 H   0  0  0  0  0  0  0  0  0  0  0  0
   59.4154    5.3688    0.3963 H   0  0  0  0  0  0  0  0  0  0  0  0
   61.0384    4.2901   -1.3721 H   0  0  0  0  0  0  0  0  0  0  0  0
   62.9253    2.4687   -0.8149 H   0  0  0  0  0  0  0  0  0  0  0  0
   62.9347   -2.5853    0.7151 H   0  0  0  0  0  0  0  0  0  0  0  0
   61.0549   -4.4218    1.2437 H   0  0  0  0  0  0  0  0  0  0  0  0
   57.3896   -5.5010   -0.3084 H   0  0  0  0  0  0  0  0  0  0  0  0
   57.3862   -7.8556    0.4226 H   0  0  0  0  0  0  0  0  0  0  0  0
   58.5348   -8.9230    3.6647 H   0  0  0  0  0  0  0  0  0  0  0  0
   57.7299   -9.3643    2.2483 H   0  0  0  0  0  0  0  0  0  0  0  0
   59.4111   -6.7305    4.0348 H   0  0  0  0  0  0  0  0  0  0  0  0
   59.4051   -4.3768    3.3005 H   0  0  0  0  0  0  0  0  0  0  0  0
   55.7307   -4.3855    1.3933 H   0  0  0  0  0  0  0  0  0  0  0  0
   53.8452   -2.5754    0.7988 H   0  0  0  0  0  0  0  0  0  0  0  0
   77.0031   -0.0220    0.0199 Zn  0  0  0  0  0  0  0  0  0  0  0  0
   73.5649   -0.0338    0.0046 C   0  0  0  0  0  0  0  0  0  0  0  0
   74.2060    1.1749   -0.3382 C   0  0  0  0  0  0  0  0  0  0  0  0
   73.5247    2.3981   -0.6404 C   0  0  0  0  0  0  0  0  0  0  0  0
   74.4784    3.3307   -0.8954 C   0  0  0  0  0  0  0  0  0  0  0  0
   75.7521    2.6811   -0.7633 C   0  0  0  0  0  0  0  0  0  0  0  0
   75.5490    1.3719   -0.4143 N   0  0  0  0  0  0  0  0  0  0  0  0
   76.9963    3.2978   -0.9389 C   0  0  0  0  0  0  0  0  0  0  0  0
   76.9954    4.7255   -1.3414 C   0  0  0  0  0  0  0  0  0  0  0  0
   76.4046    5.1295   -2.5411 C   0  0  0  0  0  0  0  0  0  0  0  0
   76.4083    6.4599   -2.9214 C   0  0  0  0  0  0  0  0  0  0  0  0
   77.0042    7.4220   -2.1017 C   0  0  0  0  0  0  0  0  0  0  0  0
   76.9675    8.7601   -2.4550 N   0  0  0  0  0  0  0  0  0  0  0  0
   77.5852    7.0282   -0.8936 C   0  0  0  0  0  0  0  0  0  0  0  0
   77.5856    5.6944   -0.5258 C   0  0  0  0  0  0  0  0  0  0  0  0
   78.2432    2.6844   -0.7677 C   0  0  0  0  0  0  0  0  0  0  0  0
   79.5135    3.3077   -1.0114 C   0  0  0  0  0  0  0  0  0  0  0  0
   80.4714    2.3823   -0.7455 C   0  0  0  0  0  0  0  0  0  0  0  0
   78.4522    1.3899   -0.3722 N   0  0  0  0  0  0  0  0  0  0  0  0
   79.7959    1.1843   -0.3456 C   0  0  0  0  0  0  0  0  0  0  0  0
   80.4425   -0.0186    0.0063 C   0  0  0  0  0  0  0  0  0  0  0  0
   79.8016   -1.2201    0.3729 C   0  0  0  0  0  0  0  0  0  0  0  0
   80.4824   -2.4382    0.6960 C   0  0  0  0  0  0  0  0  0  0  0  0
   79.5281   -3.3637    0.9748 C   0  0  0  0  0  0  0  0  0  0  0  0
   78.2549   -2.7157    0.8317 C   0  0  0  0  0  0  0  0  0  0  0  0
   78.4585   -1.4140    0.4578 N   0  0  0  0  0  0  0  0  0  0  0  0
   77.0105   -3.3314    1.0125 C   0  0  0  0  0  0  0  0  0  0  0  0
   77.0151   -4.7484    1.4520 C   0  0  0  0  0  0  0  0  0  0  0  0
   76.4426   -5.7456    0.6589 C   0  0  0  0  0  0  0  0  0  0  0  0
   76.4486   -7.0679    1.0669 C   0  0  0  0  0  0  0  0  0  0  0  0
   77.0282   -7.4224    2.2878 C   0  0  0  0  0  0  0  0  0  0  0  0
   76.9918   -8.7362    2.7229 N   0  0  0  0  0  0  0  0  0  0  0  0
   77.5920   -6.4293    3.0927 C   0  0  0  0  0  0  0  0  0  0  0  0
   77.5905   -5.1110    2.6723 C   0  0  0  0  0  0  0  0  0  0  0  0
   75.7637   -2.7261    0.8174 C   0  0  0  0  0  0  0  0  0  0  0  0
   74.4924   -3.3527    1.0476 C   0  0  0  0  0  0  0  0  0  0  0  0
   73.5347   -2.4345    0.7580 C   0  0  0  0  0  0  0  0  0  0  0  0
   74.2111   -1.2359    0.3607 C   0  0  0  0  0  0  0  0  0  0  0  0
   75.5550   -1.4358    0.4071 N   0  0  0  0  0  0  0  0  0  0  0  0
   72.4536    2.5237   -0.6448 H   0  0  0  0  0  0  0  0  0  0  0  0
   74.3324    4.3713   -1.1367 H   0  0  0  0  0  0  0  0  0  0  0  0
   75.9563    4.3864   -3.1919 H   0  0  0  0  0  0  0  0  0  0  0  0
   75.9521    6.7600   -3.8586 H   0  0  0  0  0  0  0  0  0  0  0  0
   76.8458    8.9365   -3.4397 H   0  0  0  0  0  0  0  0  0  0  0  0
   77.6745    9.3335   -2.0232 H   0  0  0  0  0  0  0  0  0  0  0  0
   78.0371    7.7723   -0.2465 H   0  0  0  0  0  0  0  0  0  0  0  0
   78.0312    5.3977    0.4175 H   0  0  0  0  0  0  0  0  0  0  0  0
   79.6545    4.3188   -1.3579 H   0  0  0  0  0  0  0  0  0  0  0  0
   81.5417    2.4928   -0.8190 H   0  0  0  0  0  0  0  0  0  0  0  0
   81.5534   -2.5648    0.6996 H   0  0  0  0  0  0  0  0  0  0  0  0
   79.6734   -4.3990    1.2382 H   0  0  0  0  0  0  0  0  0  0  0  0
   76.0065   -5.4811   -0.2983 H   0  0  0  0  0  0  0  0  0  0  0  0
   76.0068   -7.8339    0.4390 H   0  0  0  0  0  0  0  0  0  0  0  0
   77.6892   -8.9764    3.4092 H   0  0  0  0  0  0  0  0  0  0  0  0
   76.8856   -9.4231    1.9937 H   0  0  0  0  0  0  0  0  0  0  0  0
   78.0313   -6.6963    4.0477 H   0  0  0  0  0  0  0  0  0  0  0  0
   78.0224   -4.3446    3.3068 H   0  0  0  0  0  0  0  0  0  0  0  0
   74.3505   -4.3614    1.4005 H   0  0  0  0  0  0  0  0  0  0  0  0
   72.4639   -2.5489    0.8160 H   0  0  0  0  0  0  0  0  0  0  0  0
  2  3  4  0  0  0  0
  3  4  4  0  0  0  0
  4  5  2  0  0  0  0
  5  6  4  0  0  0  0
  1  7  1  0  0  0  0
  3  7  4  0  0  0  0
  6  7  4  0  0  0  0
  6  8  4  0  0  0  0
  8  9  1  0  0  0  0
  9 10  4  0  0  0  0
 10 11  4  0  0  0  0
 11 12  4  0  0  0  0
 12 13  1  0  0  0  0
 12 14  4  0  0  0  0
  9 15  4  0  0  0  0
 14 15  4  0  0  0  0
  8 16  4  0  0  0  0
 16 17  4  0  0  0  0
 17 18  2  0  0  0  0
  1 19  1  0  0  0  0
 16 19  4  0  0  0  0
 18 20  4  0  0  0  0
 19 20  4  0  0  0  0
 20 21  4  0  0  0  0
 21 22  4  0  0  0  0
 22 23  4  0  0  0  0
 23 24  2  0  0  0  0
 24 25  4  0  0  0  0
  1 26  1  0  0  0  0
 22 26  4  0  0  0  0
 25 26  4  0  0  0  0
 25 27  4  0  0  0  0
 27 28  1  0  0  0  0
 28 29  4  0  0  0  0
 29 30  4  0  0  0  0
 30 31  4  0  0  0  0
 31 32  1  0  0  0  0
 31 33  4  0  0  0  0
 28 34  4  0  0  0  0
 33 34  4  0  0  0  0
 27 35  4  0  0  0  0
 35 36  4  0  0  0  0
 36 37  2  0  0  0  0
  2 38  4  0  0  0  0
 37 38  4  0  0  0  0
  1 39  1  0  0  0  0
 35 39  4  0  0  0  0
 38 39  4  0  0  0  0
  2 40  1  0  0  0  0
  4 41  1  0  0  0  0
  5 42  1  0  0  0  0
 10 43  1  0  0  0  0
 11 44  1  0  0  0  0
 13 45  1  0  0  0  0
 13 46  1  0  0  0  0
 14 47  1  0  0  0  0
 15 48  1  0  0  0  0
 17 49  1  0  0  0  0
 18 50  1  0  0  0  0
 23 51  1  0  0  0  0
 24 52  1  0  0  0  0
 29 53  1  0  0  0  0
 30 54  1  0  0  0  0
 32 55  1  0  0  0  0
 32 56  1  0  0  0  0
 33 57  1  0  0  0  0
 34 58  1  0  0  0  0
 36 59  1  0  0  0  0
 37 60  1  0  0  0  0
 62 63  4  0  0  0  0
 63 64  4  0  0  0  0
 64 65  2  0  0  0  0
 65 66  4  0  0  0  0
 61 67  1  0  0  0  0
 63 67  4  0  0  0  0
 66 67  4  0  0  0  0
 66 68  4  0  0  0  0
 68 69  1  0  0  0  0
 69 70  4  0  0  0  0
 70 71  4  0  0  0  0
 71 72  4  0  0  0  0
 72 73  1  0  0  0  0
 72 74  4  0  0  0  0
 69 75  4  0  0  0  0
 74 75  4  0  0  0  0
 68 76  4  0  0  0  0
 76 77  4  0  0  0  0
 77 78  2  0  0  0  0
 61 79  1  0  0  0  0
 76 79  4  0  0  0  0
 78 80  4  0  0  0  0
 79 80  4  0  0  0  0
 80 81  4  0  0  0  0
 81 82  4  0  0  0  0
 82 83  4  0  0  0  0
 83 84  2  0  0  0  0
 84 85  4  0  0  0  0
 61 86  1  0  0  0  0
 82 86  4  0  0  0  0
 85 86  4  0  0  0  0
 85 87  4  0  0  0  0
 87 88  1  0  0  0  0
 88 89  4  0  0  0  0
 89 90  4  0  0  0  0
 90 91  4  0  0  0  0
 91 92  1  0  0  0  0
 91 93  4  0  0  0  0
 88 94  4  0  0  0  0
 93 94  4  0  0  0  0
 87 95  4  0  0  0  0
 95 96  4  0  0  0  0
 96 97  2  0  0  0  0
 62 98  4  0  0  0  0
 97 98  4  0  0  0  0
 61 99  1  0  0  0  0
 95 99  4  0  0  0  0
 98 99  4  0  0  0  0
 62100  1  0  0  0  0
 64101  1  0  0  0  0
 65102  1  0  0  0  0
 70103  1  0  0  0  0
 71104  1  0  0  0  0
 73105  1  0  0  0  0
 73106  1  0  0  0  0
 74107  1  0  0  0  0
 75108  1  0  0  0  0
 77109  1  0  0  0  0
 78110  1  0  0  0  0
 83111  1  0  0  0  0
 84112  1  0  0  0  0
 89113  1  0  0  0  0
 90114  1  0  0  0  0
 92115  1  0  0  0  0
 92116  1  0  0  0  0
 93117  1  0  0  0  0
 94118  1  0  0  0  0
 96119  1  0  0  0  0
 97120  1  0  0  0  0
 21121  4  0  0  0  0
121122  3  0  0  0  0
122123  4  0  0  0  0
123124  3  0  0  0  0
124125  4  0  0  0  0
125126  3  0  0  0  0
126127  4  0  0  0  0
127128  3  0  0  0  0
129130  3  0  0  0  0
130131  4  0  0  0  0
131132  3  0  0  0  0
132133  4  0  0  0  0
133134  3  0  0  0  0
134135  4  0  0  0  0
135136  3  0  0  0  0
137138  3  0  0  0  0
138139  4  0  0  0  0
139140  3  0  0  0  0
140141  4  0  0  0  0
141142  3  0  0  0  0
142143  4  0  0  0  0
 81144  4  0  0  0  0
143144  3  0  0  0  0
128146  4  0  0  0  0
146147  4  0  0  0  0
147148  4  0  0  0  0
148149  2  0  0  0  0
149150  4  0  0  0  0
145151  1  0  0  0  0
147151  4  0  0  0  0
150151  4  0  0  0  0
150152  4  0  0  0  0
152153  1  0  0  0  0
153154  4  0  0  0  0
154155  4  0  0  0  0
155156  4  0  0  0  0
156157  1  0  0  0  0
156158  4  0  0  0  0
153159  4  0  0  0  0
158159  4  0  0  0  0
152160  4  0  0  0  0
160161  4  0  0  0  0
161162  2  0  0  0  0
145163  1  0  0  0  0
160163  4  0  0  0  0
162164  4  0  0  0  0
163164  4  0  0  0  0
129165  4  0  0  0  0
164165  4  0  0  0  0
165166  4  0  0  0  0
166167  4  0  0  0  0
167168  2  0  0  0  0
168169  4  0  0  0  0
145170  1  0  0  0  0
166170  4  0  0  0  0
169170  4  0  0  0  0
169171  4  0  0  0  0
171172  1  0  0  0  0
172173  4  0  0  0  0
173174  4  0  0  0  0
174175  4  0  0  0  0
175176  1  0  0  0  0
175177  4  0  0  0  0
172178  4  0  0  0  0
177178  4  0  0  0  0
171179  4  0  0  0  0
179180  4  0  0  0  0
180181  2  0  0  0  0
146182  4  0  0  0  0
181182  4  0  0  0  0
145183  1  0  0  0  0
179183  4  0  0  0  0
182183  4  0  0  0  0
148184  1  0  0  0  0
149185  1  0  0  0  0
154186  1  0  0  0  0
155187  1  0  0  0  0
157188  1  0  0  0  0
157189  1  0  0  0  0
158190  1  0  0  0  0
159191  1  0  0  0  0
161192  1  0  0  0  0
162193  1  0  0  0  0
167194  1  0  0  0  0
168195  1  0  0  0  0
173196  1  0  0  0  0
174197  1  0  0  0  0
176198  1  0  0  0  0
176199  1  0  0  0  0
177200  1  0  0  0  0
178201  1  0  0  0  0
180202  1  0  0  0  0
181203  1  0  0  0  0
136205  4  0  0  0  0
205206  4  0  0  0  0
206207  4  0  0  0  0
207208  2  0  0  0  0
208209  4  0  0  0  0
204210  1  0  0  0  0
206210  4  0  0  0  0
209210  4  0  0  0  0
209211  4  0  0  0  0
211212  1  0  0  0  0
212213  4  0  0  0  0
213214  4  0  0  0  0
214215  4  0  0  0  0
215216  1  0  0  0  0
215217  4  0  0  0  0
212218  4  0  0  0  0
217218  4  0  0  0  0
211219  4  0  0  0  0
219220  4  0  0  0  0
220221  2  0  0  0  0
204222  1  0  0  0  0
219222  4  0  0  0  0
221223  4  0  0  0  0
222223  4  0  0  0  0
137224  4  0  0  0  0
223224  4  0  0  0  0
224225  4  0  0  0  0
225226  4  0  0  0  0
226227  2  0  0  0  0
227228  4  0  0  0  0
204229  1  0  0  0  0
225229  4  0  0  0  0
228229  4  0  0  0  0
228230  4  0  0  0  0
230231  1  0  0  0  0
231232  4  0  0  0  0
232233  4  0  0  0  0
233234  4  0  0  0  0
234235  1  0  0  0  0
234236  4  0  0  0  0
231237  4  0  0  0  0
236237  4  0  0  0  0
230238  4  0  0  0  0
238239  4  0  0  0  0
239240  2  0  0  0  0
205241  4  0  0  0  0
240241  4  0  0  0  0
204242  1  0  0  0  0
238242  4  0  0  0  0
241242  4  0  0  0  0
207243  1  0  0  0  0
208244  1  0  0  0  0
213245  1  0  0  0  0
214246  1  0  0  0  0
216247  1  0  0  0  0
216248  1  0  0  0  0
217249  1  0  0  0  0
218250  1  0  0  0  0
220251  1  0  0  0  0
221252  1  0  0  0  0
226253  1  0  0  0  0
227254  1  0  0  0  0
232255  1  0  0  0  0
233256  1  0  0  0  0
235257  1  0  0  0  0
235258  1  0  0  0  0
236259  1  0  0  0  0
237260  1  0  0  0  0
239261  1  0  0  0  0
240262  1  0  0  0  0
M  END
