262

Zn 40.106227 -0.036314 0.034413
C 36.764633 0.106974 0.024911
C 37.426902 1.146048 -0.491879
C 36.776354 2.293904 -1.112064
C 37.716568 3.142389 -1.484508
C 39.021491 2.581525 -1.107641
N 38.844338 1.308020 -0.485879
C 40.213613 3.183639 -1.300279
C 40.263337 4.529172 -1.917000
C 40.820277 4.697151 -3.193682
C 40.883535 5.968156 -3.772339
C 40.394528 7.084694 -3.079409
N 40.459437 8.384511 -3.671918
C 39.843478 6.918789 -1.800855
C 39.780563 5.648438 -1.220840
C 41.504801 2.558511 -0.910211
C 42.788257 3.271152 -0.904041
C 43.722771 2.415782 -0.542154
N 41.647464 1.316621 -0.561293
C 43.042656 1.147390 -0.310625
C 43.636854 -0.010745 0.019782
C 42.873271 -1.256756 0.252586
C 43.403792 -2.472941 0.232735
C 42.360896 -3.404541 0.616479
C 41.263263 -2.694462 0.850248
N 41.497109 -1.302620 0.629822
C 39.984649 -3.265486 1.345758
C 40.007469 -4.603472 1.985668
C 40.746421 -4.807438 3.161198
C 40.787397 -6.071092 3.757659
C 40.095214 -7.146162 3.182718
N 40.137612 -8.438518 3.793326
C 39.363755 -6.946602 2.003512
C 39.322702 -5.683650 1.405700
C 38.822592 -2.594376 1.229669
C 37.515260 -3.037010 1.711614
C 36.653598 -2.110426 1.338907
C 37.402056 -1.071596 0.633262
N 38.666916 -1.343056 0.563477
H 35.681270 0.124937 0.001452
H 35.713042 2.437446 -1.255313
H 37.528768 4.084258 -1.983102
H 41.203338 3.843532 -3.739475
H 41.313883 6.083079 -4.759199
H 40.868767 8.518457 -4.623430
H 40.098446 9.222414 -3.163510
H 39.465284 7.773224 -1.253857
H 39.357886 5.535475 -0.229972
H 42.959176 4.311551 -1.147490
H 44.776545 2.641030 -0.446014
H 44.429474 -2.728189 0.002327
H 42.469643 -4.476517 0.718646
H 41.287403 -3.986676 3.616188
H 41.358777 -6.212643 4.666400
H 40.680602 -8.597427 4.671263
H 39.626112 -9.245851 3.372077
H 38.828690 -7.769593 1.546671
H 38.761265 -5.547081 0.489535
H 37.273424 -3.935061 2.264578
H 35.589045 -2.126670 1.532298
Zn 95.282360 0.015577 0.006554
C 98.623954 -0.071513 0.120734
C 97.961685 -1.076370 0.701258
C 98.612234 -2.227512 1.315322
C 97.672019 -3.006753 1.816746
C 96.367096 -2.382744 1.557496
N 96.544249 -1.160863 0.839576
C 95.174974 -2.875990 1.952919
C 95.125250 -4.133466 2.733660
C 94.568310 -5.290388 2.168270
C 94.505052 -6.474959 2.907924
C 94.994059 -6.514322 4.221416
N 94.929150 -7.726358 4.977431
C 95.545109 -5.356986 4.789568
C 95.608024 -4.171644 4.051210
C 93.883786 -2.205471 1.647400
C 92.600330 -2.594081 2.244792
C 91.665817 -1.819836 1.731797
N 93.741123 -1.228473 0.805077
C 92.345931 -0.926037 0.802524
C 91.751733 -0.010745 0.019782
C 92.515316 0.871750 -0.890133
C 91.984795 1.527178 -1.914786
C 93.027691 2.361761 -2.479242
C 94.125324 2.164269 -1.758230
N 93.891478 1.211516 -0.719927
C 95.403938 2.892780 -1.960394
C 95.381118 4.165414 -2.722033
C 94.642166 5.257909 -2.242526
C 94.601190 6.453259 -2.966217
C 95.293373 6.568053 -4.179952
N 95.250975 7.791052 -4.919748
C 96.024832 5.474927 -4.665162
C 96.065885 4.278840 -3.942804
C 96.565995 2.425214 -1.465169
C 97.873327 3.071480 -1.567816
C 98.734989 2.248868 -1.001442
C 97.986531 1.086736 -0.525469
N 96.721671 1.178559 -0.790288
H 99.707317 -0.100991 0.122745
H 99.675545 -2.426220 1.355815
H 97.859819 -3.942735 2.326303
H 94.185249 -5.273658 1.155217
H 94.074704 -7.361001 2.458446
H 94.519821 -8.593448 4.563339
H 95.290141 -7.765566 5.956728
H 95.923303 -5.373163 5.803967
H 96.030701 -3.283345 4.504537
H 92.429412 -3.371842 2.977448
H 90.612042 -1.864158 1.972660
H 90.959113 1.476165 -2.254840
H 92.918944 3.039211 -3.316279
H 94.101184 5.183649 -1.307031
H 94.029810 7.288901 -2.582095
H 94.707985 8.610610 -4.567116
H 95.762475 7.886015 -5.825408
H 96.559897 5.548877 -5.603538
H 96.627322 3.439762 -4.335179
H 98.115163 4.028570 -2.010810
H 99.799542 2.419034 -0.908128
C 45.714019 0.003945 0.030058
C 47.172246 -0.017891 0.012184
C 48.306174 -0.038645 0.010693
C 49.667555 -0.051235 0.008502
C 50.941774 -0.040928 0.003737
C 52.130237 -0.022130 -0.002419
C 53.482597 0.002654 0.013449
C 54.582865 0.003945 0.030058
C 63.197852 0.003945 0.030058
C 64.656079 -0.017891 0.012184
C 65.790007 -0.038645 0.010693
C 67.151389 -0.051235 0.008502
C 68.425607 -0.040928 0.003737
C 69.614070 -0.022130 -0.002419
C 70.966431 0.002654 0.013449
C 72.066698 0.003945 0.030058
C 80.681686 0.003945 0.030058
C 82.139912 -0.017891 0.012184
C 83.273840 -0.038645 0.010693
C 84.635222 -0.051235 0.008502
C 85.909441 -0.040928 0.003737
C 87.097903 -0.022130 -0.002419
C 88.450264 0.002654 0.013449
C 89.550531 0.003945 0.030058
Zn 58.985190 -0.046179 0.055614
C 55.501004 0.010125 -0.026230
C 56.157864 1.120020 -0.410177
C 55.513139 2.352106 -0.870296
C 56.451163 3.247704 -1.104805
C 57.754011 2.639914 -0.815037
N 57.577593 1.289894 -0.377528
C 58.938047 3.282274 -0.902048
C 58.959425 4.702369 -1.316164
C 58.825753 5.045663 -2.669986
C 58.842780 6.388404 -3.059108
C 58.996368 7.399792 -2.099434
N 59.014295 8.773119 -2.498223
C 59.132022 7.055702 -0.746369
C 59.112917 5.713447 -0.355996
C 60.241536 2.638465 -0.597890
C 61.520451 3.359569 -0.563437
C 62.471938 2.482822 -0.317557
N 60.404979 1.368500 -0.389429
C 61.809226 1.190338 -0.201497
C 62.424317 0.010125 -0.026230
C 61.678959 -1.264303 0.068901
C 62.227460 -2.463935 -0.076444
C 61.194937 -3.444442 0.193738
C 60.085037 -2.777805 0.488925
N 60.299561 -1.368118 0.420959
C 58.819821 -3.414071 0.931065
C 58.873004 -4.802086 1.450828
C 58.228042 -5.845008 0.764624
C 58.294191 -7.154129 1.250912
C 59.009835 -7.436073 2.424166
N 59.074000 -8.774717 2.923784
C 59.663074 -6.397037 3.104418
C 59.598783 -5.087915 2.617807
C 57.643873 -2.758490 0.888371
C 56.361279 -3.272337 1.357994
C 55.473011 -2.336514 1.094534
C 56.176447 -1.216139 0.459806
N 57.446197 -1.454922 0.339262
H 54.453777 2.533917 -0.994176
H 56.261766 4.258353 -1.444194
H 58.706617 4.273363 -3.420509
H 58.736829 6.640564 -4.106922
H 58.915188 9.039144 -3.503316
H 59.131792 9.533329 -1.791260
H 59.252495 7.827175 0.004162
H 59.218410 5.460451 0.692199
H 61.679426 4.418689 -0.716843
H 63.527001 2.707631 -0.237040
H 63.258772 -2.680047 -0.320180
H 61.320656 -4.519606 0.192124
H 57.676872 -5.642770 -0.146192
H 57.789585 -7.948410 0.713276
H 59.603911 -8.994838 3.796963
H 58.588643 -9.555179 2.426918
H 60.221600 -6.601594 4.010487
H 60.109406 -4.295522 3.152967
H 56.153659 -4.219914 1.837890
H 54.418571 -2.403561 1.325835
Zn 76.469023 -0.046179 0.055614
C 72.984837 0.010125 -0.026230
C 73.641697 1.120020 -0.410177
C 72.996972 2.352106 -0.870296
C 73.934996 3.247704 -1.104805
C 75.237845 2.639914 -0.815037
N 75.061426 1.289894 -0.377528
C 76.421880 3.282274 -0.902048
C 76.443259 4.702369 -1.316164
C 76.309586 5.045663 -2.669986
C 76.326613 6.388404 -3.059108
C 76.480202 7.399792 -2.099434
N 76.498128 8.773119 -2.498223
C 76.615855 7.055702 -0.746369
C 76.596750 5.713447 -0.355996
C 77.725370 2.638465 -0.597890
C 79.004284 3.359569 -0.563437
C 79.955771 2.482822 -0.317557
N 77.888812 1.368500 -0.389429
C 79.293059 1.190338 -0.201497
C 79.908151 0.010125 -0.026230
C 79.162792 -1.264303 0.068901
C 79.711293 -2.463935 -0.076444
C 78.678771 -3.444442 0.193738
C 77.568870 -2.777805 0.488925
N 77.783394 -1.368118 0.420959
C 76.303654 -3.414071 0.931065
C 76.356837 -4.802086 1.450828
C 75.711876 -5.845008 0.764624
C 75.778024 -7.154129 1.250912
C 76.493668 -7.436073 2.424166
N 76.557833 -8.774717 2.923784
C 77.146907 -6.397037 3.104418
C 77.082616 -5.087915 2.617807
C 75.127707 -2.758490 0.888371
C 73.845112 -3.272337 1.357994
C 72.956845 -2.336514 1.094534
C 73.660281 -1.216139 0.459806
N 74.930030 -1.454922 0.339262
H 71.937610 2.533917 -0.994176
H 73.745599 4.258353 -1.444194
H 76.190450 4.273363 -3.420509
H 76.220663 6.640564 -4.106922
H 76.399021 9.039144 -3.503316
H 76.615625 9.533329 -1.791260
H 76.736328 7.827175 0.004162
H 76.702244 5.460451 0.692199
H 79.163259 4.418689 -0.716843
H 81.010834 2.707631 -0.237040
H 80.742605 -2.680047 -0.320180
H 78.804489 -4.519606 0.192124
H 75.160706 -5.642770 -0.146192
H 75.273418 -7.948410 0.713276
H 77.087744 -8.994838 3.796963
H 76.072477 -9.555179 2.426918
H 77.705433 -6.601594 4.010487
H 77.593239 -4.295522 3.152967
H 73.637492 -4.219914 1.837890
H 71.902405 -2.403561 1.325835
