189

Co 38.599871 0.016923 -0.003164
C 35.181847 -0.090092 0.086057
C 35.847138 -0.191686 1.240189
C 35.199276 -0.334215 2.538774
C 36.141401 -0.355230 3.463218
C 37.444440 -0.224980 2.797395
N 37.264961 -0.126317 1.384327
C 38.633596 -0.154049 3.428520
C 39.925081 0.005621 2.710937
C 41.211807 0.222443 3.383443
C 42.146293 0.280056 2.456669
N 40.067618 -0.072906 1.423139
C 41.464741 0.092947 1.181541
C 42.061068 0.012477 -0.019374
C 41.303329 -0.197574 -1.274088
C 41.846436 -0.610181 -2.412549
C 40.802639 -0.598467 -3.418130
C 39.690466 -0.175343 -2.828728
C 38.402470 0.047650 -3.534896
C 38.420256 0.183592 -5.011885
C 37.777113 -0.763423 -5.822884
C 37.812574 -0.641003 -7.214695
C 38.498891 0.427613 -7.819196
C 38.539942 0.561657 -9.292033
O 39.223940 1.621778 -9.881623
O 37.956818 -0.281106 -10.026618
C 39.150036 1.368441 -7.002660
C 39.113054 1.245176 -5.610853
C 37.235951 0.130900 -2.866761
C 35.920317 0.383127 -3.452394
C 35.058874 0.333926 -2.455001
C 35.815052 0.064062 -1.233393
N 37.085033 -0.055632 -1.460967
N 39.916118 0.096611 -1.444132
C 38.673345 -0.225728 4.904356
C 38.609122 -1.466701 5.551408
C 38.648438 -1.535173 6.946926
C 38.753805 -0.361479 7.715686
C 38.796346 -0.428249 9.193029
O 38.899530 0.738818 9.945733
O 38.739769 -1.540591 9.784059
C 38.818649 0.880295 7.059288
C 38.778613 0.946936 5.663668
H 34.098600 -0.108718 0.114234
H 34.135837 -0.402444 2.728991
H 35.957292 -0.442028 4.526295
H 41.386803 0.315292 4.447118
H 43.202633 0.425272 2.639606
H 42.879845 -0.885277 -2.575416
H 40.919491 -0.864339 -4.460770
H 37.251342 -1.598422 -5.376067
H 37.305271 -1.384491 -7.816675
H 39.258183 1.722937 -10.889022
H 39.689462 2.200194 -7.437905
H 39.622147 1.979477 -4.998445
H 35.673329 0.577131 -4.487834
H 33.989594 0.477038 -2.539294
H 38.528435 -2.379755 4.974255
H 38.596720 -2.506276 7.423128
H 38.929454 0.704359 10.957753
H 38.900451 1.801109 7.622863
H 38.829930 1.911602 5.173679
Co 60.261607 0.018762 -0.034962
C 63.679632 -0.077251 -0.135928
C 63.014340 -0.045082 -1.294077
C 63.662202 -0.036918 -2.600434
C 62.720077 0.048806 -3.521135
C 61.417039 0.101410 -2.844734
N 61.596518 0.036472 -1.429716
C 60.227882 0.244643 -3.463471
C 58.936397 0.320503 -2.732262
C 57.649671 0.613426 -3.375280
C 56.715185 0.563788 -2.448045
N 58.793861 0.094001 -1.462110
C 57.396737 0.230890 -1.202999
C 56.800410 0.012477 -0.019374
C 57.558149 -0.340856 1.202749
C 57.015042 -0.881988 2.286038
C 58.058839 -0.986307 3.286262
C 59.171012 -0.498041 2.749582
C 60.459008 -0.357965 3.476753
C 60.441222 -0.393244 4.959566
C 61.084365 -1.427459 5.655953
C 61.048905 -1.466347 7.052596
C 60.362587 -0.474566 7.776289
C 60.321536 -0.511251 9.254758
O 59.637538 0.473812 9.962660
O 60.904660 -1.433098 9.887262
C 59.711442 0.554142 7.073688
C 59.748424 0.592191 5.676952
C 61.625527 -0.198227 2.822676
C 62.941161 -0.015213 3.433487
C 63.802604 0.050926 2.437073
C 63.046426 -0.076273 1.192496
N 61.776445 -0.221410 1.404749
N 58.945361 -0.068242 1.405583
C 60.188133 0.343624 -4.937727
C 60.252356 -0.814459 -5.723562
C 60.213040 -0.721554 -7.117666
C 60.107673 0.532957 -7.745957
C 60.065133 0.636987 -9.221145
O 59.961948 1.883064 -9.834252
O 60.121709 -0.399782 -9.936498
C 60.042829 1.690757 -6.950747
C 60.082865 1.596022 -5.556753
H 64.762879 -0.092503 -0.166065
H 64.725642 -0.082758 -2.797251
H 62.904186 0.085172 -4.587129
H 57.474676 0.828310 -4.421153
H 55.658845 0.729129 -2.613016
H 55.981633 -1.174030 2.416097
H 57.941988 -1.370635 4.291289
H 61.610136 -2.205365 5.115832
H 61.556208 -2.274291 7.564828
H 59.603295 0.458132 10.975003
H 59.172017 1.330158 7.601940
H 59.239331 1.392212 5.153302
H 63.188150 0.058100 4.484390
H 64.871884 0.183363 2.537307
H 60.333043 -1.787975 -5.255544
H 60.264759 -1.631268 -7.702670
H 59.932024 1.965533 -10.843494
H 59.961027 2.670416 -7.404382
H 60.031548 2.497752 -4.958794
C 43.731451 0.012477 -0.019374
C 44.953369 0.012477 -0.019374
C 53.908109 0.012477 -0.019374
C 55.130027 0.012477 -0.019374
Co 49.416692 0.004034 -0.029434
C 45.964239 -0.026182 0.040653
C 46.619335 -1.201871 0.032063
C 45.978701 -2.514051 -0.075202
C 46.915877 -3.439446 -0.018210
C 48.212845 -2.774700 0.137903
N 48.034508 -1.356203 0.161164
C 49.397904 -3.410210 0.256912
C 50.692308 -2.692503 0.376565
C 51.956547 -3.340633 0.752341
C 52.909206 -2.430263 0.698878
N 50.862610 -1.435132 0.108265
C 52.258714 -1.191500 0.290640
C 52.876391 -0.026182 0.040653
C 52.126705 1.186986 -0.345590
C 52.659863 2.239107 -0.954044
C 51.626608 3.255079 -1.036571
C 50.534785 2.753463 -0.469346
C 49.281181 3.511262 -0.243055
C 49.338616 4.992955 -0.250544
C 50.114100 5.670897 0.699118
C 50.188838 7.066007 0.680993
C 49.496094 7.805944 -0.294943
C 49.567927 9.282889 -0.315612
O 48.935533 10.004614 -1.328299
O 50.194236 9.902321 0.586902
C 48.731104 7.121268 -1.254073
C 48.654787 5.726097 -1.232627
C 48.112007 2.882626 -0.017769
C 46.837871 3.524996 0.287493
C 45.948494 2.555795 0.366181
C 46.643998 1.287700 0.117528
N 47.908924 1.471856 -0.103914
N 50.760528 1.423079 -0.006814
C 49.439416 -4.890620 0.262905
C 48.926954 -5.613188 1.351844
C 48.987097 -7.009925 1.361603
C 49.565753 -7.706085 0.283823
C 49.635332 -9.184294 0.290193
O 50.205857 -9.864352 -0.782720
O 49.180375 -9.841666 1.264926
C 50.082243 -6.976215 -0.802390
C 50.021325 -5.579825 -0.810908
H 44.924023 -2.722352 -0.191870
H 46.730331 -4.503590 -0.085194
H 52.103124 -4.377270 1.026309
H 53.955928 -2.599786 0.919835
H 53.681912 2.340464 -1.294180
H 51.740755 4.250930 -1.445592
H 50.656632 5.118042 1.456234
H 50.791485 7.564318 1.428112
H 48.977250 11.016153 -1.350594
H 48.189165 7.662463 -2.021587
H 48.066878 5.215392 -1.985810
H 46.636153 4.578337 0.433394
H 44.898384 2.697069 0.585456
H 48.482742 -5.093786 2.193303
H 48.583167 -7.544179 2.213529
H 50.257839 -10.876483 -0.788262
H 50.535652 -7.482842 -1.646112
H 50.426102 -5.034288 -1.655609
