 xtb: 6.5.1 (b24c23e)
          07292220473D

183212  0     0  0            999 V2000
   23.7562   -0.0161    0.0211 Fe  0  0  0  0  0  0  0  0  0  0  0  0
   20.3640   -0.0397    0.0942 C   0  0  0  0  0  0  0  0  0  0  0  0
   21.0118   -1.2462   -0.0712 C   0  0  0  0  0  0  0  0  0  0  0  0
   20.3283   -2.4976   -0.1998 C   0  0  0  0  0  0  0  0  0  0  0  0
   21.2830   -3.4536   -0.2833 C   0  0  0  0  0  0  0  0  0  0  0  0
   22.5491   -2.7832   -0.2103 C   0  0  0  0  0  0  0  0  0  0  0  0
   22.3694   -1.4317   -0.0901 N   0  0  0  0  0  0  0  0  0  0  0  0
   23.7723   -3.4440   -0.1848 C   0  0  0  0  0  0  0  0  0  0  0  0
   24.9860   -2.7829   -0.0713 C   0  0  0  0  0  0  0  0  0  0  0  0
   26.2552   -3.4478   -0.0544 C   0  0  0  0  0  0  0  0  0  0  0  0
   27.2020   -2.4814    0.0070 C   0  0  0  0  0  0  0  0  0  0  0  0
   25.1608   -1.4195   -0.0232 N   0  0  0  0  0  0  0  0  0  0  0  0
   26.5099   -1.2306    0.0152 C   0  0  0  0  0  0  0  0  0  0  0  0
   27.1702    0.0044    0.0013 C   0  0  0  0  0  0  0  0  0  0  0  0
   26.4948    1.2311   -0.0212 C   0  0  0  0  0  0  0  0  0  0  0  0
   27.1694    2.4897   -0.0864 C   0  0  0  0  0  0  0  0  0  0  0  0
   26.2106    3.4456   -0.0504 C   0  0  0  0  0  0  0  0  0  0  0  0
   24.9531    2.7662    0.0510 C   0  0  0  0  0  0  0  0  0  0  0  0
   23.7331    3.4155    0.1664 C   0  0  0  0  0  0  0  0  0  0  0  0
   23.7193    4.8976    0.2214 C   0  0  0  0  0  0  0  0  0  0  0  0
   23.0914    5.6343   -0.7835 C   0  0  0  0  0  0  0  0  0  0  0  0
   23.0819    7.0201   -0.7338 C   0  0  0  0  0  0  0  0  0  0  0  0
   23.6918    7.6851    0.3213 C   0  0  0  0  0  0  0  0  0  0  0  0
   24.3147    6.9584    1.3269 C   0  0  0  0  0  0  0  0  0  0  0  0
   24.3322    5.5726    1.2776 C   0  0  0  0  0  0  0  0  0  0  0  0
   22.5202    2.7387    0.2377 C   0  0  0  0  0  0  0  0  0  0  0  0
   21.2536    3.3881    0.4147 C   0  0  0  0  0  0  0  0  0  0  0  0
   20.3102    2.4174    0.3966 C   0  0  0  0  0  0  0  0  0  0  0  0
   21.0020    1.1771    0.2158 C   0  0  0  0  0  0  0  0  0  0  0  0
   22.3548    1.3836    0.1429 N   0  0  0  0  0  0  0  0  0  0  0  0
   25.1444    1.4042    0.0393 N   0  0  0  0  0  0  0  0  0  0  0  0
   23.7766   -4.9255   -0.2706 C   0  0  0  0  0  0  0  0  0  0  0  0
   23.3491   -5.5669   -1.4333 C   0  0  0  0  0  0  0  0  0  0  0  0
   23.3562   -6.9515   -1.5115 C   0  0  0  0  0  0  0  0  0  0  0  0
   23.7834   -7.7098   -0.4299 C   0  0  0  0  0  0  0  0  0  0  0  0
   24.2068   -7.0780    0.7314 C   0  0  0  0  0  0  0  0  0  0  0  0
   24.2068   -5.6935    0.8118 C   0  0  0  0  0  0  0  0  0  0  0  0
   19.2804   -0.0483    0.1296 H   0  0  0  0  0  0  0  0  0  0  0  0
   19.2558   -2.6101   -0.2133 H   0  0  0  0  0  0  0  0  0  0  0  0
   21.1547   -4.5201   -0.3722 H   0  0  0  0  0  0  0  0  0  0  0  0
   26.3937   -4.5157   -0.0968 H   0  0  0  0  0  0  0  0  0  0  0  0
   28.2744   -2.5893    0.0325 H   0  0  0  0  0  0  0  0  0  0  0  0
   28.2385    2.6098   -0.1558 H   0  0  0  0  0  0  0  0  0  0  0  0
   26.3329    4.5156   -0.0933 H   0  0  0  0  0  0  0  0  0  0  0  0
   22.6239    5.1160   -1.6133 H   0  0  0  0  0  0  0  0  0  0  0  0
   22.5964    7.5834   -1.5230 H   0  0  0  0  0  0  0  0  0  0  0  0
   23.6814    8.7684    0.3599 H   0  0  0  0  0  0  0  0  0  0  0  0
   24.7894    7.4732    2.1548 H   0  0  0  0  0  0  0  0  0  0  0  0
   24.8094    5.0056    2.0691 H   0  0  0  0  0  0  0  0  0  0  0  0
   21.1180    4.4497    0.5433 H   0  0  0  0  0  0  0  0  0  0  0  0
   19.2405    2.5122    0.4964 H   0  0  0  0  0  0  0  0  0  0  0  0
   23.0248   -4.9750   -2.2820 H   0  0  0  0  0  0  0  0  0  0  0  0
   23.0270   -7.4406   -2.4216 H   0  0  0  0  0  0  0  0  0  0  0  0
   23.7862   -8.7921   -0.4920 H   0  0  0  0  0  0  0  0  0  0  0  0
   24.5385   -7.6660    1.5800 H   0  0  0  0  0  0  0  0  0  0  0  0
   24.5275   -5.2007    1.7228 H   0  0  0  0  0  0  0  0  0  0  0  0
   60.8815    0.0470    0.0362 Fe  0  0  0  0  0  0  0  0  0  0  0  0
   64.2738    0.0590    0.1068 C   0  0  0  0  0  0  0  0  0  0  0  0
   63.6290    1.2731   -0.0065 C   0  0  0  0  0  0  0  0  0  0  0  0
   64.3154    2.5272   -0.0826 C   0  0  0  0  0  0  0  0  0  0  0  0
   63.3630    3.4879   -0.1288 C   0  0  0  0  0  0  0  0  0  0  0  0
   62.0953    2.8179   -0.0842 C   0  0  0  0  0  0  0  0  0  0  0  0
   62.2719    1.4622   -0.0195 N   0  0  0  0  0  0  0  0  0  0  0  0
   60.8739    3.4801   -0.0311 C   0  0  0  0  0  0  0  0  0  0  0  0
   59.6587    2.8183    0.0590 C   0  0  0  0  0  0  0  0  0  0  0  0
   58.3915    3.4852    0.1091 C   0  0  0  0  0  0  0  0  0  0  0  0
   57.4423    2.5196    0.1374 C   0  0  0  0  0  0  0  0  0  0  0  0
   59.4803    1.4545    0.0529 N   0  0  0  0  0  0  0  0  0  0  0  0
   58.1309    1.2677    0.0915 C   0  0  0  0  0  0  0  0  0  0  0  0
   57.4672    0.0360    0.0300 C   0  0  0  0  0  0  0  0  0  0  0  0
   58.1392   -1.1903   -0.0493 C   0  0  0  0  0  0  0  0  0  0  0  0
   57.4609   -2.4430   -0.1668 C   0  0  0  0  0  0  0  0  0  0  0  0
   58.4174   -3.4018   -0.1812 C   0  0  0  0  0  0  0  0  0  0  0  0
   59.6772   -2.7306   -0.0571 C   0  0  0  0  0  0  0  0  0  0  0  0
   60.8960   -3.3874    0.0224 C   0  0  0  0  0  0  0  0  0  0  0  0
   60.9060   -4.8705    0.0099 C   0  0  0  0  0  0  0  0  0  0  0  0
   61.5243   -5.5626   -1.0320 C   0  0  0  0  0  0  0  0  0  0  0  0
   61.5298   -6.9493   -1.0452 C   0  0  0  0  0  0  0  0  0  0  0  0
   60.9256   -7.6596   -0.0167 C   0  0  0  0  0  0  0  0  0  0  0  0
   60.3125   -6.9776    1.0255 C   0  0  0  0  0  0  0  0  0  0  0  0
   60.2988   -5.5909    1.0390 C   0  0  0  0  0  0  0  0  0  0  0  0
   62.1109   -2.7177    0.1215 C   0  0  0  0  0  0  0  0  0  0  0  0
   63.3760   -3.3779    0.2665 C   0  0  0  0  0  0  0  0  0  0  0  0
   64.3217   -2.4097    0.2945 C   0  0  0  0  0  0  0  0  0  0  0  0
   63.6329   -1.1606    0.1725 C   0  0  0  0  0  0  0  0  0  0  0  0
   62.2796   -1.3601    0.0898 N   0  0  0  0  0  0  0  0  0  0  0  0
   59.4894   -1.3690   -0.0058 N   0  0  0  0  0  0  0  0  0  0  0  0
   60.8737    4.9640   -0.0560 C   0  0  0  0  0  0  0  0  0  0  0  0
   61.2946    5.6514   -1.1944 C   0  0  0  0  0  0  0  0  0  0  0  0
   61.2920    7.0382   -1.2151 C   0  0  0  0  0  0  0  0  0  0  0  0
   60.8762    7.7524   -0.0996 C   0  0  0  0  0  0  0  0  0  0  0  0
   60.4595    7.0744    1.0379 C   0  0  0  0  0  0  0  0  0  0  0  0
   60.4548    5.6878    1.0607 C   0  0  0  0  0  0  0  0  0  0  0  0
   65.3575    0.0634    0.1434 H   0  0  0  0  0  0  0  0  0  0  0  0
   65.3882    2.6378   -0.0901 H   0  0  0  0  0  0  0  0  0  0  0  0
   63.4934    4.5569   -0.1746 H   0  0  0  0  0  0  0  0  0  0  0  0
   58.2561    4.5544    0.1104 H   0  0  0  0  0  0  0  0  0  0  0  0
   56.3704    2.6292    0.1733 H   0  0  0  0  0  0  0  0  0  0  0  0
   56.3910   -2.5574   -0.2343 H   0  0  0  0  0  0  0  0  0  0  0  0
   58.2921   -4.4684   -0.2719 H   0  0  0  0  0  0  0  0  0  0  0  0
   61.9876   -5.0084   -1.8407 H   0  0  0  0  0  0  0  0  0  0  0  0
   62.0076   -7.4776   -1.8627 H   0  0  0  0  0  0  0  0  0  0  0  0
   60.9328   -8.7437   -0.0273 H   0  0  0  0  0  0  0  0  0  0  0  0
   59.8424   -7.5280    1.8329 H   0  0  0  0  0  0  0  0  0  0  0  0
   59.8292   -5.0590    1.8589 H   0  0  0  0  0  0  0  0  0  0  0  0
   63.5088   -4.4448    0.3442 H   0  0  0  0  0  0  0  0  0  0  0  0
   65.3912   -2.5117    0.3895 H   0  0  0  0  0  0  0  0  0  0  0  0
   61.6106    5.0942   -2.0692 H   0  0  0  0  0  0  0  0  0  0  0  0
   61.6158    7.5635   -2.1067 H   0  0  0  0  0  0  0  0  0  0  0  0
   60.8772    8.8364   -0.1166 H   0  0  0  0  0  0  0  0  0  0  0  0
   60.1369    7.6278    1.9128 H   0  0  0  0  0  0  0  0  0  0  0  0
   60.1391    5.1586    1.9528 H   0  0  0  0  0  0  0  0  0  0  0  0
   28.5701    0.0131   -0.0008 C   0  0  0  0  0  0  0  0  0  0  0  0
   29.7969    0.0210    0.0025 C   0  0  0  0  0  0  0  0  0  0  0  0
   31.1357    0.0296    0.0079 C   0  0  0  0  0  0  0  0  0  0  0  0
   32.3689    0.0344    0.0131 C   0  0  0  0  0  0  0  0  0  0  0  0
   33.7028    0.0417    0.0202 C   0  0  0  0  0  0  0  0  0  0  0  0
   34.9361    0.0442    0.0266 C   0  0  0  0  0  0  0  0  0  0  0  0
   36.2746    0.0459    0.0324 C   0  0  0  0  0  0  0  0  0  0  0  0
   37.5017    0.0468    0.0370 C   0  0  0  0  0  0  0  0  0  0  0  0
   47.1355   -0.0006    0.0303 C   0  0  0  0  0  0  0  0  0  0  0  0
   48.3626   -0.0015    0.0343 C   0  0  0  0  0  0  0  0  0  0  0  0
   49.7011   -0.0004    0.0376 C   0  0  0  0  0  0  0  0  0  0  0  0
   50.9345    0.0031    0.0403 C   0  0  0  0  0  0  0  0  0  0  0  0
   52.2684    0.0096    0.0412 C   0  0  0  0  0  0  0  0  0  0  0  0
   53.5016    0.0167    0.0410 C   0  0  0  0  0  0  0  0  0  0  0  0
   54.8404    0.0230    0.0382 C   0  0  0  0  0  0  0  0  0  0  0  0
   56.0672    0.0303    0.0332 C   0  0  0  0  0  0  0  0  0  0  0  0
   42.3186    0.0238    0.0316 Fe  0  0  0  0  0  0  0  0  0  0  0  0
   38.9004    0.0414    0.0378 C   0  0  0  0  0  0  0  0  0  0  0  0
   39.5658   -1.1857    0.1645 C   0  0  0  0  0  0  0  0  0  0  0  0
   38.8855   -2.4314    0.3292 C   0  0  0  0  0  0  0  0  0  0  0  0
   39.8362   -3.3972    0.3077 C   0  0  0  0  0  0  0  0  0  0  0  0
   41.0919   -2.7347    0.1210 C   0  0  0  0  0  0  0  0  0  0  0  0
   40.9122   -1.3737    0.0729 N   0  0  0  0  0  0  0  0  0  0  0  0
   42.3008   -3.3988   -0.0420 C   0  0  0  0  0  0  0  0  0  0  0  0
   43.5169   -2.7414   -0.1754 C   0  0  0  0  0  0  0  0  0  0  0  0
   44.7659   -3.4084   -0.3892 C   0  0  0  0  0  0  0  0  0  0  0  0
   45.7267   -2.4526   -0.3676 C   0  0  0  0  0  0  0  0  0  0  0  0
   43.7108   -1.3858   -0.0677 N   0  0  0  0  0  0  0  0  0  0  0  0
   45.0593   -1.2081   -0.1500 C   0  0  0  0  0  0  0  0  0  0  0  0
   45.7368    0.0056    0.0290 C   0  0  0  0  0  0  0  0  0  0  0  0
   45.0719    1.2265    0.2071 C   0  0  0  0  0  0  0  0  0  0  0  0
   45.7529    2.4641    0.4216 C   0  0  0  0  0  0  0  0  0  0  0  0
   44.8024    3.4301    0.4430 C   0  0  0  0  0  0  0  0  0  0  0  0
   43.5460    2.7763    0.2324 C   0  0  0  0  0  0  0  0  0  0  0  0
   42.3364    3.4467    0.1024 C   0  0  0  0  0  0  0  0  0  0  0  0
   42.3453    4.9292    0.1322 C   0  0  0  0  0  0  0  0  0  0  0  0
   41.6858    5.6190    1.1500 C   0  0  0  0  0  0  0  0  0  0  0  0
   41.7007    7.0054    1.1790 C   0  0  0  0  0  0  0  0  0  0  0  0
   42.3648    7.7172    0.1893 C   0  0  0  0  0  0  0  0  0  0  0  0
   43.0189    7.0373   -0.8290 C   0  0  0  0  0  0  0  0  0  0  0  0
   43.0144    5.6509   -0.8568 C   0  0  0  0  0  0  0  0  0  0  0  0
   41.1196    2.7953   -0.0537 C   0  0  0  0  0  0  0  0  0  0  0  0
   39.8699    3.4703   -0.2355 C   0  0  0  0  0  0  0  0  0  0  0  0
   38.9093    2.5142   -0.2522 C   0  0  0  0  0  0  0  0  0  0  0  0
   39.5775    1.2618   -0.0898 C   0  0  0  0  0  0  0  0  0  0  0  0
   40.9262    1.4363   -0.0033 N   0  0  0  0  0  0  0  0  0  0  0  0
   43.7253    1.4185    0.1268 N   0  0  0  0  0  0  0  0  0  0  0  0
   42.2919   -4.8814   -0.0747 C   0  0  0  0  0  0  0  0  0  0  0  0
   41.6288   -5.5604   -1.0973 C   0  0  0  0  0  0  0  0  0  0  0  0
   41.6246   -6.9468   -1.1282 C   0  0  0  0  0  0  0  0  0  0  0  0
   42.2726   -7.6691   -0.1354 C   0  0  0  0  0  0  0  0  0  0  0  0
   42.9306   -6.9997    0.8874 C   0  0  0  0  0  0  0  0  0  0  0  0
   42.9456   -5.6133    0.9169 C   0  0  0  0  0  0  0  0  0  0  0  0
   37.8189   -2.5380    0.4438 H   0  0  0  0  0  0  0  0  0  0  0  0
   39.7091   -4.4624    0.4109 H   0  0  0  0  0  0  0  0  0  0  0  0
   44.8819   -4.4694   -0.5383 H   0  0  0  0  0  0  0  0  0  0  0  0
   46.7924   -2.5651   -0.4855 H   0  0  0  0  0  0  0  0  0  0  0  0
   46.8199    2.5658    0.5374 H   0  0  0  0  0  0  0  0  0  0  0  0
   44.9305    4.4900    0.5907 H   0  0  0  0  0  0  0  0  0  0  0  0
   41.1754    5.0631    1.9286 H   0  0  0  0  0  0  0  0  0  0  0  0
   41.1916    7.5320    1.9784 H   0  0  0  0  0  0  0  0  0  0  0  0
   42.3726    8.8011    0.2117 H   0  0  0  0  0  0  0  0  0  0  0  0
   43.5358    7.5891   -1.6062 H   0  0  0  0  0  0  0  0  0  0  0  0
   43.5175    5.1202   -1.6574 H   0  0  0  0  0  0  0  0  0  0  0  0
   39.7529    4.5366   -0.3393 H   0  0  0  0  0  0  0  0  0  0  0  0
   37.8433    2.6315   -0.3620 H   0  0  0  0  0  0  0  0  0  0  0  0
   41.1298   -4.9963   -1.8773 H   0  0  0  0  0  0  0  0  0  0  0  0
   41.1128   -7.4653   -1.9312 H   0  0  0  0  0  0  0  0  0  0  0  0
   42.2649   -8.7529   -0.1589 H   0  0  0  0  0  0  0  0  0  0  0  0
   43.4346   -7.5597    1.6672 H   0  0  0  0  0  0  0  0  0  0  0  0
   43.4517   -5.0907    1.7208 H   0  0  0  0  0  0  0  0  0  0  0  0
  2  3  4  0  0  0  0
  3  4  4  0  0  0  0
  4  5  2  0  0  0  0
  5  6  4  0  0  0  0
  1  7  1  0  0  0  0
  3  7  4  0  0  0  0
  6  7  4  0  0  0  0
  6  8  4  0  0  0  0
  8  9  4  0  0  0  0
  9 10  4  0  0  0  0
 10 11  2  0  0  0  0
  1 12  1  0  0  0  0
  9 12  4  0  0  0  0
 11 13  4  0  0  0  0
 12 13  4  0  0  0  0
 13 14  4  0  0  0  0
 14 15  4  0  0  0  0
 15 16  4  0  0  0  0
 16 17  2  0  0  0  0
 17 18  4  0  0  0  0
 18 19  4  0  0  0  0
 19 20  1  0  0  0  0
 20 21  4  0  0  0  0
 21 22  4  0  0  0  0
 22 23  4  0  0  0  0
 23 24  4  0  0  0  0
 20 25  4  0  0  0  0
 24 25  4  0  0  0  0
 19 26  4  0  0  0  0
 26 27  4  0  0  0  0
 27 28  2  0  0  0  0
  2 29  4  0  0  0  0
 28 29  4  0  0  0  0
  1 30  1  0  0  0  0
 26 30  4  0  0  0  0
 29 30  4  0  0  0  0
  1 31  1  0  0  0  0
 15 31  4  0  0  0  0
 18 31  4  0  0  0  0
  8 32  1  0  0  0  0
 32 33  4  0  0  0  0
 33 34  4  0  0  0  0
 34 35  4  0  0  0  0
 35 36  4  0  0  0  0
 32 37  4  0  0  0  0
 36 37  4  0  0  0  0
  2 38  1  0  0  0  0
  4 39  1  0  0  0  0
  5 40  1  0  0  0  0
 10 41  1  0  0  0  0
 11 42  1  0  0  0  0
 16 43  1  0  0  0  0
 17 44  1  0  0  0  0
 21 45  1  0  0  0  0
 22 46  1  0  0  0  0
 23 47  1  0  0  0  0
 24 48  1  0  0  0  0
 25 49  1  0  0  0  0
 27 50  1  0  0  0  0
 28 51  1  0  0  0  0
 33 52  1  0  0  0  0
 34 53  1  0  0  0  0
 35 54  1  0  0  0  0
 36 55  1  0  0  0  0
 37 56  1  0  0  0  0
 58 59  4  0  0  0  0
 59 60  4  0  0  0  0
 60 61  2  0  0  0  0
 61 62  4  0  0  0  0
 57 63  1  0  0  0  0
 59 63  4  0  0  0  0
 62 63  4  0  0  0  0
 62 64  4  0  0  0  0
 64 65  4  0  0  0  0
 65 66  4  0  0  0  0
 66 67  2  0  0  0  0
 57 68  1  0  0  0  0
 65 68  4  0  0  0  0
 67 69  4  0  0  0  0
 68 69  4  0  0  0  0
 69 70  4  0  0  0  0
 70 71  4  0  0  0  0
 71 72  4  0  0  0  0
 72 73  2  0  0  0  0
 73 74  4  0  0  0  0
 74 75  4  0  0  0  0
 75 76  1  0  0  0  0
 76 77  4  0  0  0  0
 77 78  4  0  0  0  0
 78 79  4  0  0  0  0
 79 80  4  0  0  0  0
 76 81  4  0  0  0  0
 80 81  4  0  0  0  0
 75 82  4  0  0  0  0
 82 83  4  0  0  0  0
 83 84  2  0  0  0  0
 58 85  4  0  0  0  0
 84 85  4  0  0  0  0
 57 86  1  0  0  0  0
 82 86  4  0  0  0  0
 85 86  4  0  0  0  0
 57 87  1  0  0  0  0
 71 87  4  0  0  0  0
 74 87  4  0  0  0  0
 64 88  1  0  0  0  0
 88 89  4  0  0  0  0
 89 90  4  0  0  0  0
 90 91  4  0  0  0  0
 91 92  4  0  0  0  0
 88 93  4  0  0  0  0
 92 93  4  0  0  0  0
 58 94  1  0  0  0  0
 60 95  1  0  0  0  0
 61 96  1  0  0  0  0
 66 97  1  0  0  0  0
 67 98  1  0  0  0  0
 72 99  1  0  0  0  0
 73100  1  0  0  0  0
 77101  1  0  0  0  0
 78102  1  0  0  0  0
 79103  1  0  0  0  0
 80104  1  0  0  0  0
 81105  1  0  0  0  0
 83106  1  0  0  0  0
 84107  1  0  0  0  0
 89108  1  0  0  0  0
 90109  1  0  0  0  0
 91110  1  0  0  0  0
 92111  1  0  0  0  0
 93112  1  0  0  0  0
 14113  4  0  0  0  0
113114  3  0  0  0  0
114115  4  0  0  0  0
115116  3  0  0  0  0
116117  4  0  0  0  0
117118  3  0  0  0  0
118119  4  0  0  0  0
119120  3  0  0  0  0
121122  3  0  0  0  0
122123  4  0  0  0  0
123124  3  0  0  0  0
124125  4  0  0  0  0
125126  3  0  0  0  0
126127  4  0  0  0  0
 70128  4  0  0  0  0
127128  3  0  0  0  0
120130  4  0  0  0  0
130131  4  0  0  0  0
131132  4  0  0  0  0
132133  2  0  0  0  0
133134  4  0  0  0  0
129135  1  0  0  0  0
131135  4  0  0  0  0
134135  4  0  0  0  0
134136  4  0  0  0  0
136137  4  0  0  0  0
137138  4  0  0  0  0
138139  2  0  0  0  0
129140  1  0  0  0  0
137140  4  0  0  0  0
139141  4  0  0  0  0
140141  4  0  0  0  0
121142  4  0  0  0  0
141142  4  0  0  0  0
142143  4  0  0  0  0
143144  4  0  0  0  0
144145  2  0  0  0  0
145146  4  0  0  0  0
146147  4  0  0  0  0
147148  1  0  0  0  0
148149  4  0  0  0  0
149150  4  0  0  0  0
150151  4  0  0  0  0
151152  4  0  0  0  0
148153  4  0  0  0  0
152153  4  0  0  0  0
147154  4  0  0  0  0
154155  4  0  0  0  0
155156  2  0  0  0  0
130157  4  0  0  0  0
156157  4  0  0  0  0
129158  1  0  0  0  0
154158  4  0  0  0  0
157158  4  0  0  0  0
129159  1  0  0  0  0
143159  4  0  0  0  0
146159  4  0  0  0  0
136160  1  0  0  0  0
160161  4  0  0  0  0
161162  4  0  0  0  0
162163  4  0  0  0  0
163164  4  0  0  0  0
160165  4  0  0  0  0
164165  4  0  0  0  0
132166  1  0  0  0  0
133167  1  0  0  0  0
138168  1  0  0  0  0
139169  1  0  0  0  0
144170  1  0  0  0  0
145171  1  0  0  0  0
149172  1  0  0  0  0
150173  1  0  0  0  0
151174  1  0  0  0  0
152175  1  0  0  0  0
153176  1  0  0  0  0
155177  1  0  0  0  0
156178  1  0  0  0  0
161179  1  0  0  0  0
162180  1  0  0  0  0
163181  1  0  0  0  0
164182  1  0  0  0  0
165183  1  0  0  0  0
M  END
