698

C 133.363407 0.097084 -0.013544
C 134.087808 0.008472 1.363559
C 133.467914 -0.024392 2.592550
C 134.488596 -0.142092 3.569941
C 135.699967 -0.175760 2.903934
N 135.443167 -0.061684 1.561049
C 137.131952 -0.353651 3.561418
C 137.185167 -0.625226 5.017355
C 137.383611 0.412997 5.925476
C 137.418440 0.155275 7.303923
C 137.242123 -1.139129 7.831615
N 137.281450 -1.386954 9.216741
C 136.984604 -0.269053 10.108949
C 136.868235 -2.702614 9.694894
C 137.069092 -2.169715 6.886742
C 137.033226 -1.920915 5.506148
C 138.259690 -0.284413 2.802924
C 139.571218 -0.511222 3.374044
C 140.473532 -0.408872 2.405991
N 138.451647 -0.032276 1.468882
C 139.788577 -0.092360 1.167993
C 140.461355 0.087229 -0.000214
C 139.688949 0.478745 -1.332769
C 140.255050 1.035638 -2.464496
C 139.229362 1.183846 -3.429104
C 138.059602 0.728183 -2.856651
N 138.341494 0.338745 -1.567734
C 136.635767 0.683533 -3.558240
C 136.587070 0.832082 -5.029634
C 136.411412 2.086825 -5.610668
C 136.404448 2.228499 -7.005432
C 136.583845 1.132077 -7.871907
N 136.584097 1.297962 -9.271509
C 136.845014 0.127726 -10.104348
C 137.138446 2.556423 -9.770228
C 136.720691 -0.126619 -7.255694
C 136.733025 -0.276629 -5.860713
C 135.513524 0.516555 -2.811315
C 134.184972 0.473519 -3.397071
C 133.301283 0.317007 -2.416169
C 134.029656 0.249642 -1.172975
N 135.354273 0.363728 -1.461635
H 132.281943 0.025737 -0.022208
H 132.403384 0.020785 2.765410
H 134.354962 -0.206868 4.640023
H 136.147926 -0.030780 0.828465
H 137.519310 1.424811 5.550104
H 137.596149 1.009149 7.948220
H 136.002403 0.165811 9.890494
H 136.974552 -0.593253 11.156188
H 137.755182 0.506536 10.045954
H 135.820974 -2.905012 9.444165
H 137.506969 -3.494319 9.288557
H 136.966050 -2.771109 10.784372
H 136.953325 -3.204275 7.189518
H 136.892451 -2.738594 4.802806
H 139.788869 -0.738620 4.402637
H 141.531518 -0.535744 2.544988
H 141.294317 1.297301 -2.592538
H 139.333303 1.576368 -4.429778
H 137.648448 0.036144 -0.887709
H 136.277864 2.954518 -4.968187
H 136.240395 3.228929 -7.390823
H 136.741329 0.379478 -11.166201
H 137.861082 -0.252146 -9.949838
H 136.118752 -0.669741 -9.911954
H 136.493521 3.405245 -9.521837
H 137.209810 2.546404 -10.863604
H 138.146452 2.732276 -9.377676
H 136.838714 -1.034680 -7.835956
H 136.857921 -1.260864 -5.413636
H 133.950155 0.555758 -4.443459
H 132.233765 0.250273 -2.524176
C 268.796695 0.093686 0.015055
C 268.072294 0.330220 -1.344473
C 268.692187 0.586245 -2.546950
C 267.671506 0.700840 -3.524710
C 266.460135 0.512053 -2.885133
N 266.716934 0.308292 -1.552904
C 265.028150 0.493175 -3.565996
C 264.974935 0.570310 -5.045035
C 264.776490 1.792418 -5.684600
C 264.741662 1.864864 -7.085061
C 264.917979 0.730144 -7.901362
N 264.878651 0.813777 -9.305997
C 265.175497 2.109616 -9.911423
C 265.291866 -0.353216 -10.079119
C 265.091010 -0.493151 -7.224278
C 265.126875 -0.574774 -5.823822
C 263.900411 0.382757 -2.812395
C 262.588883 0.296085 -3.420760
C 261.686570 0.168754 -2.455675
N 263.708455 0.315285 -1.456412
C 262.371525 0.186370 -1.177979
C 261.698746 0.087229 -0.000214
C 262.471152 0.155605 1.386982
C 261.905051 0.431811 2.617692
C 262.930739 0.349869 3.590173
C 264.100499 0.041027 2.926887
N 263.818608 -0.035554 1.582602
C 265.524334 -0.166775 3.598482
C 265.573032 -0.367133 5.063720
C 265.748690 0.716531 5.922586
C 265.755653 0.527444 7.311717
C 265.576257 -0.741484 7.897159
N 265.576004 -0.908167 9.296666
C 265.315087 -2.240973 9.832113
C 265.021656 0.198400 10.076380
C 265.439411 -1.820749 7.003167
C 265.427077 -1.639714 5.611872
C 266.646577 -0.154086 2.833226
C 267.975130 -0.333177 3.392590
C 268.858818 -0.255490 2.402323
C 268.130445 -0.029677 1.177954
N 266.805828 0.013594 1.485310
H 269.878159 0.022296 0.006760
H 269.756717 0.670667 -2.704412
H 267.805139 0.888606 -4.580180
H 266.012175 0.166679 -0.833474
H 264.640792 2.688108 -5.082594
H 264.563953 2.845937 -7.511343
H 266.157699 2.481185 -9.597153
H 265.185549 2.039827 -11.005472
H 264.404919 2.848852 -9.668448
H 266.339127 -0.608729 -9.882796
H 264.653133 -1.218091 -9.869605
H 265.194051 -0.164521 -11.154316
H 265.206777 -1.427964 -7.761040
H 265.267651 -1.534494 -5.331657
H 262.371233 0.316034 -4.474000
H 260.628583 0.077984 -2.620531
H 260.865784 0.656187 2.803481
H 262.826799 0.496988 4.654964
H 264.511653 -0.170390 0.850604
H 265.882238 1.710613 5.501307
H 265.919706 1.409719 7.920797
H 265.418772 -2.245040 10.923394
H 264.299020 -2.574065 9.592894
H 266.041349 -2.971157 9.458214
H 265.666580 1.081793 10.033798
H 264.950291 -0.067536 11.136969
H 264.013650 0.461339 9.735961
H 265.321388 -2.839494 7.354501
H 265.302181 -2.491790 4.946619
H 268.209947 -0.498414 4.429118
H 269.926337 -0.345674 2.491686
C 146.469762 0.088541 0.008219
C 145.260823 0.075086 -0.000229
C 143.839294 0.083905 -0.012212
C 142.627625 0.091344 -0.001349
C 147.886367 0.081866 0.008752
C 149.107062 0.091344 -0.001349
C 162.245250 0.088541 0.008219
C 161.036311 0.075086 -0.000229
C 159.614782 0.083905 -0.012212
C 158.403113 0.091344 -0.001349
C 163.661855 0.081866 0.008752
C 164.882551 0.091344 -0.001349
C 178.020739 0.088541 0.008219
C 176.811799 0.075086 -0.000229
C 175.390270 0.083905 -0.012212
C 174.178601 0.091344 -0.001349
C 179.437343 0.081866 0.008752
C 180.658039 0.091344 -0.001349
C 193.796227 0.088541 0.008219
C 192.587287 0.075086 -0.000229
C 191.165759 0.083905 -0.012212
C 189.954089 0.091344 -0.001349
C 195.212831 0.081866 0.008752
C 196.433527 0.091344 -0.001349
C 209.571715 0.088541 0.008219
C 208.362776 0.075086 -0.000229
C 206.941247 0.083905 -0.012212
C 205.729577 0.091344 -0.001349
C 210.988319 0.081866 0.008752
C 212.209015 0.091344 -0.001349
C 225.347203 0.088541 0.008219
C 224.138264 0.075086 -0.000229
C 222.716735 0.083905 -0.012212
C 221.505065 0.091344 -0.001349
C 226.763808 0.081866 0.008752
C 227.984503 0.091344 -0.001349
C 241.122691 0.088541 0.008219
C 239.913752 0.075086 -0.000229
C 238.492223 0.083905 -0.012212
C 237.280554 0.091344 -0.001349
C 242.539296 0.081866 0.008752
C 243.759992 0.091344 -0.001349
C 256.898180 0.088541 0.008219
C 255.689240 0.075086 -0.000229
C 254.267711 0.083905 -0.012212
C 253.056042 0.091344 -0.001349
C 258.314784 0.081866 0.008752
C 259.535480 0.091344 -0.001349
C 150.180105 -0.033968 0.000190
C 150.973892 -0.383939 1.326550
C 150.466140 -0.999011 2.453255
C 151.503357 -1.034985 3.420089
C 152.614011 -0.447665 2.851222
N 152.303256 -0.124845 1.553962
C 154.004151 -0.180586 3.562795
C 153.993637 0.000584 5.032460
C 153.543687 1.194391 5.593026
C 153.505573 1.358477 6.985804
C 153.895506 0.334746 7.868749
N 153.857455 0.479055 9.271087
C 153.382193 1.746230 9.817268
C 153.440748 -0.711421 10.012715
C 154.371159 -0.850045 7.274315
C 154.413842 -1.021058 5.883271
C 155.138770 -0.078839 2.821645
C 156.425380 0.221623 3.414892
C 157.333296 0.264627 2.445809
N 155.346888 -0.199415 1.475424
C 156.671154 -0.007443 1.185682
C 157.334744 -0.033968 0.000190
C 156.540945 -0.333076 -1.338573
C 157.048351 -0.906921 -2.487218
C 156.011439 -0.905752 -3.455042
C 154.901271 -0.338584 -2.864654
N 155.211914 -0.065184 -1.556090
C 153.511504 -0.043646 -3.565896
C 153.522477 0.190064 -5.028111
C 153.981842 1.398412 -5.547073
C 154.019275 1.609988 -6.933767
C 153.619068 0.622815 -7.854511
N 153.656152 0.827676 -9.247761
C 153.834593 -0.359781 -10.081254
C 154.283105 2.046523 -9.750290
C 153.135269 -0.577724 -7.298828
C 153.094133 -0.797417 -5.914074
C 152.376765 0.030655 -2.821256
C 151.089957 0.353430 -3.402336
C 150.181937 0.359028 -2.432177
C 150.844113 0.038939 -1.183449
N 152.168798 -0.140686 -1.480372
H 149.456823 -1.360752 2.577143
H 151.442169 -1.424677 4.425168
H 152.964654 0.215590 0.861767
H 153.220364 1.999676 4.936807
H 153.141949 2.313899 7.347055
H 153.501371 1.761961 10.907180
H 153.969894 2.589839 9.437423
H 152.320423 1.904700 9.595660
H 154.187821 -1.508957 9.951786
H 152.475226 -1.086679 9.653533
H 153.331397 -0.486244 11.080384
H 154.743591 -1.669263 7.879790
H 154.783782 -1.949861 5.454047
H 156.619485 0.393028 4.458894
H 158.377437 0.471767 2.592070
H 158.057429 -1.265176 -2.623808
H 156.072124 -1.257671 -4.474060
H 154.551369 0.251148 -0.851196
H 154.312091 2.178243 -4.863962
H 154.386945 2.576309 -7.260317
H 154.727865 -0.923156 -9.787849
H 152.956265 -1.012678 -10.040896
H 153.953862 -0.085275 -11.136061
H 155.350164 2.077266 -9.502804
H 154.194447 2.107072 -10.841189
H 153.786055 2.941533 -9.359575
H 152.761960 -1.378773 -7.926944
H 152.720151 -1.738942 -5.517521
H 150.895291 0.564438 -4.438783
H 149.137568 0.571540 -2.570097
C 165.955593 -0.033968 0.000190
C 166.749380 -0.383939 1.326550
C 166.241628 -0.999011 2.453255
C 167.278845 -1.034985 3.420089
C 168.389499 -0.447665 2.851222
N 168.078745 -0.124845 1.553962
C 169.779639 -0.180586 3.562795
C 169.769125 0.000584 5.032460
C 169.319175 1.194391 5.593026
C 169.281061 1.358477 6.985804
C 169.670994 0.334746 7.868749
N 169.632943 0.479055 9.271087
C 169.157681 1.746230 9.817268
C 169.216236 -0.711421 10.012715
C 170.146647 -0.850045 7.274315
C 170.189330 -1.021058 5.883271
C 170.914259 -0.078839 2.821645
C 172.200868 0.221623 3.414892
C 173.108784 0.264627 2.445809
N 171.122376 -0.199415 1.475424
C 172.446642 -0.007443 1.185682
C 173.110232 -0.033968 0.000190
C 172.316433 -0.333076 -1.338573
C 172.823839 -0.906921 -2.487218
C 171.786927 -0.905752 -3.455042
C 170.676759 -0.338584 -2.864654
N 170.987402 -0.065184 -1.556090
C 169.286992 -0.043646 -3.565896
C 169.297965 0.190064 -5.028111
C 169.757331 1.398412 -5.547073
C 169.794763 1.609988 -6.933767
C 169.394557 0.622815 -7.854511
N 169.431640 0.827676 -9.247761
C 169.610081 -0.359781 -10.081254
C 170.058594 2.046523 -9.750290
C 168.910758 -0.577724 -7.298828
C 168.869621 -0.797417 -5.914074
C 168.152253 0.030655 -2.821256
C 166.865445 0.353430 -3.402336
C 165.957425 0.359028 -2.432177
C 166.619601 0.038939 -1.183449
N 167.944287 -0.140686 -1.480372
H 165.232311 -1.360752 2.577143
H 167.217658 -1.424677 4.425168
H 168.740142 0.215590 0.861767
H 168.995852 1.999676 4.936807
H 168.917437 2.313899 7.347055
H 169.276860 1.761961 10.907180
H 169.745382 2.589839 9.437423
H 168.095912 1.904700 9.595660
H 169.963310 -1.508957 9.951786
H 168.250714 -1.086679 9.653533
H 169.106885 -0.486244 11.080384
H 170.519079 -1.669263 7.879790
H 170.559270 -1.949861 5.454047
H 172.394973 0.393028 4.458894
H 174.152925 0.471767 2.592070
H 173.832917 -1.265176 -2.623808
H 171.847612 -1.257671 -4.474060
H 170.326857 0.251148 -0.851196
H 170.087579 2.178243 -4.863962
H 170.162433 2.576309 -7.260317
H 170.503353 -0.923156 -9.787849
H 168.731753 -1.012678 -10.040896
H 169.729350 -0.085275 -11.136061
H 171.125652 2.077266 -9.502804
H 169.969935 2.107072 -10.841189
H 169.561543 2.941533 -9.359575
H 168.537448 -1.378773 -7.926944
H 168.495639 -1.738942 -5.517521
H 166.670779 0.564438 -4.438783
H 164.913056 0.571540 -2.570097
C 181.731082 -0.033968 0.000190
C 182.524868 -0.383939 1.326550
C 182.017116 -0.999011 2.453255
C 183.054333 -1.034985 3.420089
C 184.164987 -0.447665 2.851222
N 183.854233 -0.124845 1.553962
C 185.555128 -0.180586 3.562795
C 185.544613 0.000584 5.032460
C 185.094663 1.194391 5.593026
C 185.056549 1.358477 6.985804
C 185.446482 0.334746 7.868749
N 185.408431 0.479055 9.271087
C 184.933169 1.746230 9.817268
C 184.991725 -0.711421 10.012715
C 185.922136 -0.850045 7.274315
C 185.964818 -1.021058 5.883271
C 186.689747 -0.078839 2.821645
C 187.976357 0.221623 3.414892
C 188.884272 0.264627 2.445809
N 186.897864 -0.199415 1.475424
C 188.222130 -0.007443 1.185682
C 188.885720 -0.033968 0.000190
C 188.091922 -0.333076 -1.338573
C 188.599328 -0.906921 -2.487218
C 187.562415 -0.905752 -3.455042
C 186.452247 -0.338584 -2.864654
N 186.762890 -0.065184 -1.556090
C 185.062480 -0.043646 -3.565896
C 185.073453 0.190064 -5.028111
C 185.532819 1.398412 -5.547073
C 185.570251 1.609988 -6.933767
C 185.170045 0.622815 -7.854511
N 185.207128 0.827676 -9.247761
C 185.385569 -0.359781 -10.081254
C 185.834082 2.046523 -9.750290
C 184.686246 -0.577724 -7.298828
C 184.645109 -0.797417 -5.914074
C 183.927742 0.030655 -2.821256
C 182.640934 0.353430 -3.402336
C 181.732913 0.359028 -2.432177
C 182.395089 0.038939 -1.183449
N 183.719775 -0.140686 -1.480372
H 181.007799 -1.360752 2.577143
H 182.993146 -1.424677 4.425168
H 184.515630 0.215590 0.861767
H 184.771340 1.999676 4.936807
H 184.692926 2.313899 7.347055
H 185.052348 1.761961 10.907180
H 185.520870 2.589839 9.437423
H 183.871400 1.904700 9.595660
H 185.738798 -1.508957 9.951786
H 184.026202 -1.086679 9.653533
H 184.882373 -0.486244 11.080384
H 186.294568 -1.669263 7.879790
H 186.334759 -1.949861 5.454047
H 188.170461 0.393028 4.458894
H 189.928414 0.471767 2.592070
H 189.608405 -1.265176 -2.623808
H 187.623100 -1.257671 -4.474060
H 186.102345 0.251148 -0.851196
H 185.863067 2.178243 -4.863962
H 185.937921 2.576309 -7.260317
H 186.278842 -0.923156 -9.787849
H 184.507242 -1.012678 -10.040896
H 185.504838 -0.085275 -11.136061
H 186.901140 2.077266 -9.502804
H 185.745423 2.107072 -10.841189
H 185.337031 2.941533 -9.359575
H 184.312936 -1.378773 -7.926944
H 184.271127 -1.738942 -5.517521
H 182.446268 0.564438 -4.438783
H 180.688544 0.571540 -2.570097
C 197.506570 -0.033968 0.000190
C 198.300356 -0.383939 1.326550
C 197.792605 -0.999011 2.453255
C 198.829821 -1.034985 3.420089
C 199.940475 -0.447665 2.851222
N 199.629721 -0.124845 1.553962
C 201.330616 -0.180586 3.562795
C 201.320101 0.000584 5.032460
C 200.870151 1.194391 5.593026
C 200.832037 1.358477 6.985804
C 201.221971 0.334746 7.868749
N 201.183919 0.479055 9.271087
C 200.708657 1.746230 9.817268
C 200.767213 -0.711421 10.012715
C 201.697624 -0.850045 7.274315
C 201.740306 -1.021058 5.883271
C 202.465235 -0.078839 2.821645
C 203.751845 0.221623 3.414892
C 204.659760 0.264627 2.445809
N 202.673352 -0.199415 1.475424
C 203.997618 -0.007443 1.185682
C 204.661208 -0.033968 0.000190
C 203.867410 -0.333076 -1.338573
C 204.374816 -0.906921 -2.487218
C 203.337904 -0.905752 -3.455042
C 202.227735 -0.338584 -2.864654
N 202.538379 -0.065184 -1.556090
C 200.837968 -0.043646 -3.565896
C 200.848941 0.190064 -5.028111
C 201.308307 1.398412 -5.547073
C 201.345740 1.609988 -6.933767
C 200.945533 0.622815 -7.854511
N 200.982616 0.827676 -9.247761
C 201.161057 -0.359781 -10.081254
C 201.609570 2.046523 -9.750290
C 200.461734 -0.577724 -7.298828
C 200.420597 -0.797417 -5.914074
C 199.703230 0.030655 -2.821256
C 198.416422 0.353430 -3.402336
C 197.508401 0.359028 -2.432177
C 198.170577 0.038939 -1.183449
N 199.495263 -0.140686 -1.480372
H 196.783287 -1.360752 2.577143
H 198.768634 -1.424677 4.425168
H 200.291118 0.215590 0.861767
H 200.546828 1.999676 4.936807
H 200.468414 2.313899 7.347055
H 200.827836 1.761961 10.907180
H 201.296358 2.589839 9.437423
H 199.646888 1.904700 9.595660
H 201.514286 -1.508957 9.951786
H 199.801691 -1.086679 9.653533
H 200.657861 -0.486244 11.080384
H 202.070056 -1.669263 7.879790
H 202.110247 -1.949861 5.454047
H 203.945950 0.393028 4.458894
H 205.703902 0.471767 2.592070
H 205.383893 -1.265176 -2.623808
H 203.398588 -1.257671 -4.474060
H 201.877833 0.251148 -0.851196
H 201.638555 2.178243 -4.863962
H 201.713409 2.576309 -7.260317
H 202.054330 -0.923156 -9.787849
H 200.282730 -1.012678 -10.040896
H 201.280326 -0.085275 -11.136061
H 202.676628 2.077266 -9.502804
H 201.520912 2.107072 -10.841189
H 201.112520 2.941533 -9.359575
H 200.088424 -1.378773 -7.926944
H 200.046615 -1.738942 -5.517521
H 198.221756 0.564438 -4.438783
H 196.464032 0.571540 -2.570097
C 213.282058 -0.033968 0.000190
C 214.075844 -0.383939 1.326550
C 213.568093 -0.999011 2.453255
C 214.605309 -1.034985 3.420089
C 215.715963 -0.447665 2.851222
N 215.405209 -0.124845 1.553962
C 217.106104 -0.180586 3.562795
C 217.095590 0.000584 5.032460
C 216.645639 1.194391 5.593026
C 216.607526 1.358477 6.985804
C 216.997459 0.334746 7.868749
N 216.959408 0.479055 9.271087
C 216.484146 1.746230 9.817268
C 216.542701 -0.711421 10.012715
C 217.473112 -0.850045 7.274315
C 217.515795 -1.021058 5.883271
C 218.240723 -0.078839 2.821645
C 219.527333 0.221623 3.414892
C 220.435248 0.264627 2.445809
N 218.448840 -0.199415 1.475424
C 219.773106 -0.007443 1.185682
C 220.436696 -0.033968 0.000190
C 219.642898 -0.333076 -1.338573
C 220.150304 -0.906921 -2.487218
C 219.113392 -0.905752 -3.455042
C 218.003223 -0.338584 -2.864654
N 218.313867 -0.065184 -1.556090
C 216.613456 -0.043646 -3.565896
C 216.624429 0.190064 -5.028111
C 217.083795 1.398412 -5.547073
C 217.121228 1.609988 -6.933767
C 216.721021 0.622815 -7.854511
N 216.758104 0.827676 -9.247761
C 216.936546 -0.359781 -10.081254
C 217.385058 2.046523 -9.750290
C 216.237222 -0.577724 -7.298828
C 216.196085 -0.797417 -5.914074
C 215.478718 0.030655 -2.821256
C 214.191910 0.353430 -3.402336
C 213.283890 0.359028 -2.432177
C 213.946065 0.038939 -1.183449
N 215.270751 -0.140686 -1.480372
H 212.558775 -1.360752 2.577143
H 214.544122 -1.424677 4.425168
H 216.066606 0.215590 0.861767
H 216.322316 1.999676 4.936807
H 216.243902 2.313899 7.347055
H 216.603324 1.761961 10.907180
H 217.071846 2.589839 9.437423
H 215.422376 1.904700 9.595660
H 217.289774 -1.508957 9.951786
H 215.577179 -1.086679 9.653533
H 216.433349 -0.486244 11.080384
H 217.845544 -1.669263 7.879790
H 217.885735 -1.949861 5.454047
H 219.721438 0.393028 4.458894
H 221.479390 0.471767 2.592070
H 221.159381 -1.265176 -2.623808
H 219.174076 -1.257671 -4.474060
H 217.653322 0.251148 -0.851196
H 217.414043 2.178243 -4.863962
H 217.488897 2.576309 -7.260317
H 217.829818 -0.923156 -9.787849
H 216.058218 -1.012678 -10.040896
H 217.055814 -0.085275 -11.136061
H 218.452116 2.077266 -9.502804
H 217.296400 2.107072 -10.841189
H 216.888008 2.941533 -9.359575
H 215.863912 -1.378773 -7.926944
H 215.822103 -1.738942 -5.517521
H 213.997244 0.564438 -4.438783
H 212.239520 0.571540 -2.570097
C 229.057546 -0.033968 0.000190
C 229.851333 -0.383939 1.326550
C 229.343581 -0.999011 2.453255
C 230.380798 -1.034985 3.420089
C 231.491451 -0.447665 2.851222
N 231.180697 -0.124845 1.553962
C 232.881592 -0.180586 3.562795
C 232.871078 0.000584 5.032460
C 232.421128 1.194391 5.593026
C 232.383014 1.358477 6.985804
C 232.772947 0.334746 7.868749
N 232.734896 0.479055 9.271087
C 232.259634 1.746230 9.817268
C 232.318189 -0.711421 10.012715
C 233.248600 -0.850045 7.274315
C 233.291283 -1.021058 5.883271
C 234.016211 -0.078839 2.821645
C 235.302821 0.221623 3.414892
C 236.210737 0.264627 2.445809
N 234.224329 -0.199415 1.475424
C 235.548594 -0.007443 1.185682
C 236.212184 -0.033968 0.000190
C 235.418386 -0.333076 -1.338573
C 235.925792 -0.906921 -2.487218
C 234.888880 -0.905752 -3.455042
C 233.778712 -0.338584 -2.864654
N 234.089355 -0.065184 -1.556090
C 232.388944 -0.043646 -3.565896
C 232.399918 0.190064 -5.028111
C 232.859283 1.398412 -5.547073
C 232.896716 1.609988 -6.933767
C 232.496509 0.622815 -7.854511
N 232.533592 0.827676 -9.247761
C 232.712034 -0.359781 -10.081254
C 233.160546 2.046523 -9.750290
C 232.012710 -0.577724 -7.298828
C 231.971574 -0.797417 -5.914074
C 231.254206 0.030655 -2.821256
C 229.967398 0.353430 -3.402336
C 229.059378 0.359028 -2.432177
C 229.721554 0.038939 -1.183449
N 231.046239 -0.140686 -1.480372
H 228.334264 -1.360752 2.577143
H 230.319610 -1.424677 4.425168
H 231.842095 0.215590 0.861767
H 232.097805 1.999676 4.936807
H 232.019390 2.313899 7.347055
H 232.378812 1.761961 10.907180
H 232.847335 2.589839 9.437423
H 231.197864 1.904700 9.595660
H 233.065262 -1.508957 9.951786
H 231.352667 -1.086679 9.653533
H 232.208838 -0.486244 11.080384
H 233.621032 -1.669263 7.879790
H 233.661223 -1.949861 5.454047
H 235.496926 0.393028 4.458894
H 237.254878 0.471767 2.592070
H 236.934870 -1.265176 -2.623808
H 234.949565 -1.257671 -4.474060
H 233.428810 0.251148 -0.851196
H 233.189532 2.178243 -4.863962
H 233.264386 2.576309 -7.260317
H 233.605306 -0.923156 -9.787849
H 231.833706 -1.012678 -10.040896
H 232.831302 -0.085275 -11.136061
H 234.227605 2.077266 -9.502804
H 233.071888 2.107072 -10.841189
H 232.663496 2.941533 -9.359575
H 231.639400 -1.378773 -7.926944
H 231.597592 -1.738942 -5.517521
H 229.772732 0.564438 -4.438783
H 228.015008 0.571540 -2.570097
C 244.833034 -0.033968 0.000190
C 245.626821 -0.383939 1.326550
C 245.119069 -0.999011 2.453255
C 246.156286 -1.034985 3.420089
C 247.266940 -0.447665 2.851222
N 246.956185 -0.124845 1.553962
C 248.657080 -0.180586 3.562795
C 248.646566 0.000584 5.032460
C 248.196616 1.194391 5.593026
C 248.158502 1.358477 6.985804
C 248.548435 0.334746 7.868749
N 248.510384 0.479055 9.271087
C 248.035122 1.746230 9.817268
C 248.093677 -0.711421 10.012715
C 249.024088 -0.850045 7.274315
C 249.066771 -1.021058 5.883271
C 249.791700 -0.078839 2.821645
C 251.078309 0.221623 3.414892
C 251.986225 0.264627 2.445809
N 249.999817 -0.199415 1.475424
C 251.324083 -0.007443 1.185682
C 251.987673 -0.033968 0.000190
C 251.193874 -0.333076 -1.338573
C 251.701280 -0.906921 -2.487218
C 250.664368 -0.905752 -3.455042
C 249.554200 -0.338584 -2.864654
N 249.864843 -0.065184 -1.556090
C 248.164433 -0.043646 -3.565896
C 248.175406 0.190064 -5.028111
C 248.634771 1.398412 -5.547073
C 248.672204 1.609988 -6.933767
C 248.271997 0.622815 -7.854511
N 248.309081 0.827676 -9.247761
C 248.487522 -0.359781 -10.081254
C 248.936035 2.046523 -9.750290
C 247.788199 -0.577724 -7.298828
C 247.747062 -0.797417 -5.914074
C 247.029694 0.030655 -2.821256
C 245.742886 0.353430 -3.402336
C 244.834866 0.359028 -2.432177
C 245.497042 0.038939 -1.183449
N 246.821727 -0.140686 -1.480372
H 244.109752 -1.360752 2.577143
H 246.095098 -1.424677 4.425168
H 247.617583 0.215590 0.861767
H 247.873293 1.999676 4.936807
H 247.794878 2.313899 7.347055
H 248.154300 1.761961 10.907180
H 248.622823 2.589839 9.437423
H 246.973352 1.904700 9.595660
H 248.840750 -1.508957 9.951786
H 247.128155 -1.086679 9.653533
H 247.984326 -0.486244 11.080384
H 249.396520 -1.669263 7.879790
H 249.436711 -1.949861 5.454047
H 251.272414 0.393028 4.458894
H 253.030366 0.471767 2.592070
H 252.710358 -1.265176 -2.623808
H 250.725053 -1.257671 -4.474060
H 249.204298 0.251148 -0.851196
H 248.965020 2.178243 -4.863962
H 249.039874 2.576309 -7.260317
H 249.380794 -0.923156 -9.787849
H 247.609194 -1.012678 -10.040896
H 248.606791 -0.085275 -11.136061
H 250.003093 2.077266 -9.502804
H 248.847376 2.107072 -10.841189
H 248.438984 2.941533 -9.359575
H 247.414889 -1.378773 -7.926944
H 247.373080 -1.738942 -5.517521
H 245.548220 0.564438 -4.438783
H 243.790497 0.571540 -2.570097
