 xtb: 6.5.1 (b24c23e)
          07292221333D

252291  0     0  0            999 V2000
   53.8365   -0.0014   -0.0728 Fe  0  0  0  0  0  0  0  0  0  0  0  0
   50.4439    0.0114   -0.1533 C   0  0  0  0  0  0  0  0  0  0  0  0
   51.0892    1.2263   -0.0563 C   0  0  0  0  0  0  0  0  0  0  0  0
   50.4016    2.4781    0.0444 C   0  0  0  0  0  0  0  0  0  0  0  0
   51.3530    3.4394    0.0929 C   0  0  0  0  0  0  0  0  0  0  0  0
   52.6207    2.7728    0.0078 C   0  0  0  0  0  0  0  0  0  0  0  0
   52.4461    1.4170   -0.0584 N   0  0  0  0  0  0  0  0  0  0  0  0
   53.8439    3.4345   -0.0118 C   0  0  0  0  0  0  0  0  0  0  0  0
   53.8474    4.9176    0.0223 C   0  0  0  0  0  0  0  0  0  0  0  0
   53.2623    5.6450   -1.0141 C   0  0  0  0  0  0  0  0  0  0  0  0
   53.2681    7.0346   -0.9795 C   0  0  0  0  0  0  0  0  0  0  0  0
   52.7102    7.7518   -1.9851 O   0  0  0  0  0  0  0  0  0  0  0  0
   53.8518    7.7009    0.0994 C   0  0  0  0  0  0  0  0  0  0  0  0
   53.8377    9.0708    0.1090 O   0  0  0  0  0  0  0  0  0  0  0  0
   54.4324    6.9738    1.1356 C   0  0  0  0  0  0  0  0  0  0  0  0
   54.9817    7.6973    2.1612 O   0  0  0  0  0  0  0  0  0  0  0  0
   54.4375    5.5851    1.0990 C   0  0  0  0  0  0  0  0  0  0  0  0
   55.0607    2.7696   -0.0609 C   0  0  0  0  0  0  0  0  0  0  0  0
   56.3270    3.4347   -0.1447 C   0  0  0  0  0  0  0  0  0  0  0  0
   57.2760    2.4684   -0.1427 C   0  0  0  0  0  0  0  0  0  0  0  0
   55.2389    1.4064   -0.0368 N   0  0  0  0  0  0  0  0  0  0  0  0
   56.5886    1.2179   -0.0622 C   0  0  0  0  0  0  0  0  0  0  0  0
   57.2507   -0.0149   -0.0104 C   0  0  0  0  0  0  0  0  0  0  0  0
   56.5779   -1.2422    0.0267 C   0  0  0  0  0  0  0  0  0  0  0  0
   57.2556   -2.4992    0.0917 C   0  0  0  0  0  0  0  0  0  0  0  0
   56.3005   -3.4582    0.0637 C   0  0  0  0  0  0  0  0  0  0  0  0
   55.0386   -2.7825   -0.0054 C   0  0  0  0  0  0  0  0  0  0  0  0
   55.2273   -1.4200   -0.0206 N   0  0  0  0  0  0  0  0  0  0  0  0
   53.8206   -3.4371   -0.1121 C   0  0  0  0  0  0  0  0  0  0  0  0
   53.8109   -4.9213   -0.1322 C   0  0  0  0  0  0  0  0  0  0  0  0
   54.2311   -5.6414    0.9856 C   0  0  0  0  0  0  0  0  0  0  0  0
   54.2138   -7.0314    0.9650 C   0  0  0  0  0  0  0  0  0  0  0  0
   54.6113   -7.7422    2.0482 O   0  0  0  0  0  0  0  0  0  0  0  0
   53.7836   -7.7046   -0.1796 C   0  0  0  0  0  0  0  0  0  0  0  0
   53.7804   -9.0750   -0.1724 O   0  0  0  0  0  0  0  0  0  0  0  0
   53.3689   -6.9843   -1.2969 C   0  0  0  0  0  0  0  0  0  0  0  0
   52.9645   -7.7142   -2.3839 O   0  0  0  0  0  0  0  0  0  0  0  0
   53.3765   -5.5952   -1.2765 C   0  0  0  0  0  0  0  0  0  0  0  0
   52.6051   -2.7668   -0.2049 C   0  0  0  0  0  0  0  0  0  0  0  0
   51.3339   -3.4276   -0.2817 C   0  0  0  0  0  0  0  0  0  0  0  0
   50.3891   -2.4584   -0.2964 C   0  0  0  0  0  0  0  0  0  0  0  0
   51.0834   -1.2090   -0.2185 C   0  0  0  0  0  0  0  0  0  0  0  0
   52.4380   -1.4092   -0.1694 N   0  0  0  0  0  0  0  0  0  0  0  0
   49.3598    0.0152   -0.1714 H   0  0  0  0  0  0  0  0  0  0  0  0
   49.3291    2.5860    0.0776 H   0  0  0  0  0  0  0  0  0  0  0  0
   51.2212    4.5053    0.1830 H   0  0  0  0  0  0  0  0  0  0  0  0
   52.8177    5.1383   -1.8609 H   0  0  0  0  0  0  0  0  0  0  0  0
   52.8116    8.6959   -1.7797 H   0  0  0  0  0  0  0  0  0  0  0  0
   54.2771    9.3688    0.9214 H   0  0  0  0  0  0  0  0  0  0  0  0
   55.3516    7.1124    2.8354 H   0  0  0  0  0  0  0  0  0  0  0  0
   54.8803    5.0249    1.9141 H   0  0  0  0  0  0  0  0  0  0  0  0
   56.4624    4.5020   -0.2100 H   0  0  0  0  0  0  0  0  0  0  0  0
   58.3465    2.5792   -0.2009 H   0  0  0  0  0  0  0  0  0  0  0  0
   58.3251   -2.6189    0.1484 H   0  0  0  0  0  0  0  0  0  0  0  0
   56.4296   -4.5280    0.0785 H   0  0  0  0  0  0  0  0  0  0  0  0
   54.5543   -5.1290    1.8824 H   0  0  0  0  0  0  0  0  0  0  0  0
   54.5231   -8.6874    1.8425 H   0  0  0  0  0  0  0  0  0  0  0  0
   53.4501   -9.3769   -1.0335 H   0  0  0  0  0  0  0  0  0  0  0  0
   52.6932   -7.1326   -3.1062 H   0  0  0  0  0  0  0  0  0  0  0  0
   53.0633   -5.0403   -2.1531 H   0  0  0  0  0  0  0  0  0  0  0  0
   51.1940   -4.4961   -0.3058 H   0  0  0  0  0  0  0  0  0  0  0  0
   49.3165   -2.5606   -0.3434 H   0  0  0  0  0  0  0  0  0  0  0  0
   86.3493   -0.0744   -0.0229 Fe  0  0  0  0  0  0  0  0  0  0  0  0
   89.7409   -0.1016   -0.0938 C   0  0  0  0  0  0  0  0  0  0  0  0
   89.0875   -1.3156   -0.1276 C   0  0  0  0  0  0  0  0  0  0  0  0
   89.7655   -2.5762   -0.1601 C   0  0  0  0  0  0  0  0  0  0  0  0
   88.8073   -3.5291   -0.2355 C   0  0  0  0  0  0  0  0  0  0  0  0
   87.5454   -2.8472   -0.2603 C   0  0  0  0  0  0  0  0  0  0  0  0
   87.7294   -1.4946   -0.1664 N   0  0  0  0  0  0  0  0  0  0  0  0
   86.3181   -3.4922   -0.3762 C   0  0  0  0  0  0  0  0  0  0  0  0
   86.3053   -4.9677   -0.5271 C   0  0  0  0  0  0  0  0  0  0  0  0
   86.9041   -5.5647   -1.6365 C   0  0  0  0  0  0  0  0  0  0  0  0
   86.8888   -6.9475   -1.7765 C   0  0  0  0  0  0  0  0  0  0  0  0
   87.4597   -7.5378   -2.8545 O   0  0  0  0  0  0  0  0  0  0  0  0
   86.2822   -7.7387   -0.7994 C   0  0  0  0  0  0  0  0  0  0  0  0
   86.2879   -9.0991   -0.9607 O   0  0  0  0  0  0  0  0  0  0  0  0
   85.6884   -7.1420    0.3102 C   0  0  0  0  0  0  0  0  0  0  0  0
   85.1176   -7.9834    1.2286 O   0  0  0  0  0  0  0  0  0  0  0  0
   85.6926   -5.7597    0.4477 C   0  0  0  0  0  0  0  0  0  0  0  0
   85.1064   -2.8169   -0.3530 C   0  0  0  0  0  0  0  0  0  0  0  0
   83.8357   -3.4560   -0.5256 C   0  0  0  0  0  0  0  0  0  0  0  0
   82.8934   -2.4917   -0.3968 C   0  0  0  0  0  0  0  0  0  0  0  0
   84.9378   -1.4667   -0.1538 N   0  0  0  0  0  0  0  0  0  0  0  0
   83.5895   -1.2674   -0.1532 C   0  0  0  0  0  0  0  0  0  0  0  0
   82.9366   -0.0473    0.0623 C   0  0  0  0  0  0  0  0  0  0  0  0
   83.6184    1.1616    0.2477 C   0  0  0  0  0  0  0  0  0  0  0  0
   82.9502    2.4052    0.4720 C   0  0  0  0  0  0  0  0  0  0  0  0
   83.9112    3.3565    0.5409 C   0  0  0  0  0  0  0  0  0  0  0  0
   85.1673    2.6875    0.3728 C   0  0  0  0  0  0  0  0  0  0  0  0
   84.9693    1.3370    0.2028 N   0  0  0  0  0  0  0  0  0  0  0  0
   86.3878    3.3441    0.3178 C   0  0  0  0  0  0  0  0  0  0  0  0
   86.4065    4.8213    0.4615 C   0  0  0  0  0  0  0  0  0  0  0  0
   86.0069    5.4143    1.6588 C   0  0  0  0  0  0  0  0  0  0  0  0
   86.0299    6.7979    1.7919 C   0  0  0  0  0  0  0  0  0  0  0  0
   85.6509    7.3850    2.9530 O   0  0  0  0  0  0  0  0  0  0  0  0
   86.4457    7.5926    0.7223 C   0  0  0  0  0  0  0  0  0  0  0  0
   86.4548    8.9532    0.8818 O   0  0  0  0  0  0  0  0  0  0  0  0
   86.8402    6.9993   -0.4743 C   0  0  0  0  0  0  0  0  0  0  0  0
   87.2311    7.8439   -1.4796 O   0  0  0  0  0  0  0  0  0  0  0  0
   86.8268    5.6164   -0.6078 C   0  0  0  0  0  0  0  0  0  0  0  0
   87.5975    2.6813    0.1360 C   0  0  0  0  0  0  0  0  0  0  0  0
   88.8723    3.3390    0.1176 C   0  0  0  0  0  0  0  0  0  0  0  0
   89.8111    2.3705    0.0035 C   0  0  0  0  0  0  0  0  0  0  0  0
   89.1093    1.1236   -0.0400 C   0  0  0  0  0  0  0  0  0  0  0  0
   87.7561    1.3262    0.0319 N   0  0  0  0  0  0  0  0  0  0  0  0
   90.8251   -0.1108   -0.1069 H   0  0  0  0  0  0  0  0  0  0  0  0
   90.8368   -2.6957   -0.1254 H   0  0  0  0  0  0  0  0  0  0  0  0
   88.9310   -4.5994   -0.2668 H   0  0  0  0  0  0  0  0  0  0  0  0
   87.3662   -4.9597   -2.4059 H   0  0  0  0  0  0  0  0  0  0  0  0
   87.3450   -8.4990   -2.7732 H   0  0  0  0  0  0  0  0  0  0  0  0
   85.8286   -9.4919   -0.2014 H   0  0  0  0  0  0  0  0  0  0  0  0
   84.7339   -7.4831    1.9607 H   0  0  0  0  0  0  0  0  0  0  0  0
   85.2396   -5.3023    1.3194 H   0  0  0  0  0  0  0  0  0  0  0  0
   83.6928   -4.5043   -0.7309 H   0  0  0  0  0  0  0  0  0  0  0  0
   81.8223   -2.5863   -0.4697 H   0  0  0  0  0  0  0  0  0  0  0  0
   81.8825    2.5224    0.5593 H   0  0  0  0  0  0  0  0  0  0  0  0
   83.7891    4.4178    0.6824 H   0  0  0  0  0  0  0  0  0  0  0  0
   85.6955    4.8064    2.4983 H   0  0  0  0  0  0  0  0  0  0  0  0
   85.7356    8.3473    2.8507 H   0  0  0  0  0  0  0  0  0  0  0  0
   86.7657    9.3498    0.0525 H   0  0  0  0  0  0  0  0  0  0  0  0
   87.4823    7.3463   -2.2688 H   0  0  0  0  0  0  0  0  0  0  0  0
   87.1235    5.1614   -1.5454 H   0  0  0  0  0  0  0  0  0  0  0  0
   89.0187    4.4039    0.1985 H   0  0  0  0  0  0  0  0  0  0  0  0
   90.8841    2.4706   -0.0378 H   0  0  0  0  0  0  0  0  0  0  0  0
   58.6546   -0.0200   -0.0012 C   0  0  0  0  0  0  0  0  0  0  0  0
   59.8737   -0.0236    0.0033 C   0  0  0  0  0  0  0  0  0  0  0  0
   69.4858   -0.0059    0.0155 C   0  0  0  0  0  0  0  0  0  0  0  0
   70.7057   -0.0020    0.0189 C   0  0  0  0  0  0  0  0  0  0  0  0
   80.3143   -0.0248    0.0843 C   0  0  0  0  0  0  0  0  0  0  0  0
   81.5335   -0.0344    0.0788 C   0  0  0  0  0  0  0  0  0  0  0  0
   64.6821   -0.0140   -0.0204 Fe  0  0  0  0  0  0  0  0  0  0  0  0
   61.2760   -0.0228   -0.0007 C   0  0  0  0  0  0  0  0  0  0  0  0
   61.9505    1.1556    0.3491 C   0  0  0  0  0  0  0  0  0  0  0  0
   61.2961    2.3490    0.7804 C   0  0  0  0  0  0  0  0  0  0  0  0
   62.2486    3.3131    0.8461 C   0  0  0  0  0  0  0  0  0  0  0  0
   63.4806    2.7019    0.4497 C   0  0  0  0  0  0  0  0  0  0  0  0
   63.2906    1.3644    0.2087 N   0  0  0  0  0  0  0  0  0  0  0  0
   64.6726    3.3925    0.2459 C   0  0  0  0  0  0  0  0  0  0  0  0
   64.6585    4.8685    0.3371 C   0  0  0  0  0  0  0  0  0  0  0  0
   65.5037    5.5329    1.2279 C   0  0  0  0  0  0  0  0  0  0  0  0
   65.4997    6.9216    1.3190 C   0  0  0  0  0  0  0  0  0  0  0  0
   66.3088    7.5790    2.1893 O   0  0  0  0  0  0  0  0  0  0  0  0
   64.6476    7.6686    0.4981 C   0  0  0  0  0  0  0  0  0  0  0  0
   64.6280    9.0242    0.5561 O   0  0  0  0  0  0  0  0  0  0  0  0
   63.8061    6.9966   -0.3934 C   0  0  0  0  0  0  0  0  0  0  0  0
   63.0001    7.7874   -1.1703 O   0  0  0  0  0  0  0  0  0  0  0  0
   63.7988    5.6119   -0.4754 C   0  0  0  0  0  0  0  0  0  0  0  0
   65.8724    2.7511   -0.0406 C   0  0  0  0  0  0  0  0  0  0  0  0
   67.1102    3.4212   -0.3041 C   0  0  0  0  0  0  0  0  0  0  0  0
   68.0701    2.4638   -0.3503 C   0  0  0  0  0  0  0  0  0  0  0  0
   66.0694    1.3917    0.0003 N   0  0  0  0  0  0  0  0  0  0  0  0
   67.4125    1.2148   -0.1330 C   0  0  0  0  0  0  0  0  0  0  0  0
   68.0863   -0.0079    0.0059 C   0  0  0  0  0  0  0  0  0  0  0  0
   67.4132   -1.2323    0.1226 C   0  0  0  0  0  0  0  0  0  0  0  0
   68.0732   -2.4843    0.3190 C   0  0  0  0  0  0  0  0  0  0  0  0
   67.1202   -3.4444    0.2251 C   0  0  0  0  0  0  0  0  0  0  0  0
   65.8829   -2.7724   -0.0369 C   0  0  0  0  0  0  0  0  0  0  0  0
   66.0727   -1.4117   -0.0377 N   0  0  0  0  0  0  0  0  0  0  0  0
   64.6888   -3.4129   -0.3452 C   0  0  0  0  0  0  0  0  0  0  0  0
   64.6888   -4.8879   -0.4817 C   0  0  0  0  0  0  0  0  0  0  0  0
   65.5211   -5.5037   -1.4179 C   0  0  0  0  0  0  0  0  0  0  0  0
   65.5096   -6.8868   -1.5519 C   0  0  0  0  0  0  0  0  0  0  0  0
   66.2981   -7.4961   -2.4685 O   0  0  0  0  0  0  0  0  0  0  0  0
   64.6724   -7.6569   -0.7415 C   0  0  0  0  0  0  0  0  0  0  0  0
   64.6959   -9.0333   -0.9062 O   0  0  0  0  0  0  0  0  0  0  0  0
   63.8700   -7.0459    0.2204 C   0  0  0  0  0  0  0  0  0  0  0  0
   63.0757   -7.7942    1.0385 O   0  0  0  0  0  0  0  0  0  0  0  0
   63.8632   -5.6606    0.3362 C   0  0  0  0  0  0  0  0  0  0  0  0
   63.4907   -2.7279   -0.5232 C   0  0  0  0  0  0  0  0  0  0  0  0
   62.2552   -3.3425   -0.9043 C   0  0  0  0  0  0  0  0  0  0  0  0
   61.2971   -2.3881   -0.8008 C   0  0  0  0  0  0  0  0  0  0  0  0
   61.9514   -1.1955   -0.3657 C   0  0  0  0  0  0  0  0  0  0  0  0
   63.2956   -1.3959   -0.2550 N   0  0  0  0  0  0  0  0  0  0  0  0
   60.2451    2.4279    1.0055 H   0  0  0  0  0  0  0  0  0  0  0  0
   62.1351    4.3425    1.1448 H   0  0  0  0  0  0  0  0  0  0  0  0
   66.1568    4.9638    1.8798 H   0  0  0  0  0  0  0  0  0  0  0  0
   66.8451    6.9614    2.7037 H   0  0  0  0  0  0  0  0  0  0  0  0
   63.9747    9.3474   -0.0853 H   0  0  0  0  0  0  0  0  0  0  0  0
   62.4552    7.2505   -1.7604 H   0  0  0  0  0  0  0  0  0  0  0  0
   63.1486    5.1153   -1.1859 H   0  0  0  0  0  0  0  0  0  0  0  0
   67.2236    4.4843   -0.4406 H   0  0  0  0  0  0  0  0  0  0  0  0
   69.1278    2.5813   -0.5226 H   0  0  0  0  0  0  0  0  0  0  0  0
   69.1283   -2.6009    0.5058 H   0  0  0  0  0  0  0  0  0  0  0  0
   67.2362   -4.5110    0.3270 H   0  0  0  0  0  0  0  0  0  0  0  0
   66.1570   -4.9142   -2.0655 H   0  0  0  0  0  0  0  0  0  0  0  0
   66.1473   -8.4546   -2.4123 H   0  0  0  0  0  0  0  0  0  0  0  0
   63.8047   -9.4007   -0.8401 H   0  0  0  0  0  0  0  0  0  0  0  0
   63.3752   -8.7140    1.0543 H   0  0  0  0  0  0  0  0  0  0  0  0
   63.2368   -5.1971    1.0872 H   0  0  0  0  0  0  0  0  0  0  0  0
   62.1432   -4.3689   -1.2133 H   0  0  0  0  0  0  0  0  0  0  0  0
   60.2416   -2.4724   -1.0020 H   0  0  0  0  0  0  0  0  0  0  0  0
   75.5083   -0.0071    0.0244 Fe  0  0  0  0  0  0  0  0  0  0  0  0
   72.1050   -0.0024    0.0182 C   0  0  0  0  0  0  0  0  0  0  0  0
   72.7802    1.1928    0.3068 C   0  0  0  0  0  0  0  0  0  0  0  0
   72.1236    2.4077    0.6710 C   0  0  0  0  0  0  0  0  0  0  0  0
   73.0807    3.3683    0.7148 C   0  0  0  0  0  0  0  0  0  0  0  0
   74.3167    2.7347    0.3673 C   0  0  0  0  0  0  0  0  0  0  0  0
   74.1219    1.3881    0.1785 N   0  0  0  0  0  0  0  0  0  0  0  0
   75.5156    3.4068    0.1540 C   0  0  0  0  0  0  0  0  0  0  0  0
   75.5205    4.8846    0.2075 C   0  0  0  0  0  0  0  0  0  0  0  0
   76.3685    5.5554    1.0911 C   0  0  0  0  0  0  0  0  0  0  0  0
   76.3806    6.9454    1.1572 C   0  0  0  0  0  0  0  0  0  0  0  0
   77.1902    7.6091    2.0215 O   0  0  0  0  0  0  0  0  0  0  0  0
   75.5426    7.6872    0.3169 C   0  0  0  0  0  0  0  0  0  0  0  0
   75.5376    9.0433    0.3515 O   0  0  0  0  0  0  0  0  0  0  0  0
   74.7009    7.0088   -0.5697 C   0  0  0  0  0  0  0  0  0  0  0  0
   73.9116    7.7951   -1.3677 O   0  0  0  0  0  0  0  0  0  0  0  0
   74.6768    5.6229   -0.6261 C   0  0  0  0  0  0  0  0  0  0  0  0
   76.7124    2.7445   -0.1052 C   0  0  0  0  0  0  0  0  0  0  0  0
   77.9519    3.3959   -0.4026 C   0  0  0  0  0  0  0  0  0  0  0  0
   78.9058    2.4313   -0.4165 C   0  0  0  0  0  0  0  0  0  0  0  0
   76.9011    1.3881   -0.0084 N   0  0  0  0  0  0  0  0  0  0  0  0
   78.2445    1.1969   -0.1383 C   0  0  0  0  0  0  0  0  0  0  0  0
   78.9125   -0.0172    0.0762 C   0  0  0  0  0  0  0  0  0  0  0  0
   78.2305   -1.2274    0.2651 C   0  0  0  0  0  0  0  0  0  0  0  0
   78.8766   -2.4710    0.5398 C   0  0  0  0  0  0  0  0  0  0  0  0
   77.9209   -3.4308    0.4653 C   0  0  0  0  0  0  0  0  0  0  0  0
   76.6951   -2.7662    0.1414 C   0  0  0  0  0  0  0  0  0  0  0  0
   76.8913   -1.4092    0.0853 N   0  0  0  0  0  0  0  0  0  0  0  0
   75.5051   -3.4164   -0.1730 C   0  0  0  0  0  0  0  0  0  0  0  0
   75.5146   -4.8930   -0.2841 C   0  0  0  0  0  0  0  0  0  0  0  0
   76.3785   -5.5138   -1.1879 C   0  0  0  0  0  0  0  0  0  0  0  0
   76.3770   -6.8982   -1.3105 C   0  0  0  0  0  0  0  0  0  0  0  0
   77.1977   -7.5114   -2.1946 O   0  0  0  0  0  0  0  0  0  0  0  0
   75.5159   -7.6637   -0.5213 C   0  0  0  0  0  0  0  0  0  0  0  0
   75.5482   -9.0428   -0.6693 O   0  0  0  0  0  0  0  0  0  0  0  0
   74.6827   -7.0477    0.4110 C   0  0  0  0  0  0  0  0  0  0  0  0
   73.8697   -7.7951    1.2104 O   0  0  0  0  0  0  0  0  0  0  0  0
   74.6678   -5.6616    0.5161 C   0  0  0  0  0  0  0  0  0  0  0  0
   74.3119   -2.7369   -0.3869 C   0  0  0  0  0  0  0  0  0  0  0  0
   73.0747   -3.3601   -0.7506 C   0  0  0  0  0  0  0  0  0  0  0  0
   72.1183   -2.4016   -0.6753 C   0  0  0  0  0  0  0  0  0  0  0  0
   72.7771   -1.1960   -0.2834 C   0  0  0  0  0  0  0  0  0  0  0  0
   74.1186   -1.3947   -0.1637 N   0  0  0  0  0  0  0  0  0  0  0  0
   71.0680    2.5017    0.8687 H   0  0  0  0  0  0  0  0  0  0  0  0
   72.9673    4.4102    0.9664 H   0  0  0  0  0  0  0  0  0  0  0  0
   77.0105    4.9903    1.7574 H   0  0  0  0  0  0  0  0  0  0  0  0
   77.7196    6.9957    2.5480 H   0  0  0  0  0  0  0  0  0  0  0  0
   74.8910    9.3629   -0.2986 H   0  0  0  0  0  0  0  0  0  0  0  0
   73.3624    7.2551   -1.9507 H   0  0  0  0  0  0  0  0  0  0  0  0
   74.0269    5.1213   -1.3334 H   0  0  0  0  0  0  0  0  0  0  0  0
   78.0699    4.4517   -0.5841 H   0  0  0  0  0  0  0  0  0  0  0  0
   79.9622    2.5355   -0.6030 H   0  0  0  0  0  0  0  0  0  0  0  0
   79.9252   -2.5838    0.7621 H   0  0  0  0  0  0  0  0  0  0  0  0
   78.0280   -4.4919    0.6206 H   0  0  0  0  0  0  0  0  0  0  0  0
   77.0322   -4.9271   -1.8202 H   0  0  0  0  0  0  0  0  0  0  0  0
   77.0542   -8.4706   -2.1316 H   0  0  0  0  0  0  0  0  0  0  0  0
   74.6536   -9.4066   -0.7002 H   0  0  0  0  0  0  0  0  0  0  0  0
   74.1600   -8.7185    1.2105 H   0  0  0  0  0  0  0  0  0  0  0  0
   74.0189   -5.1941    1.2452 H   0  0  0  0  0  0  0  0  0  0  0  0
   72.9599   -4.3952   -1.0279 H   0  0  0  0  0  0  0  0  0  0  0  0
   71.0620   -2.4901   -0.8713 H   0  0  0  0  0  0  0  0  0  0  0  0
  2  3  4  0  0  0  0
  3  4  4  0  0  0  0
  4  5  2  0  0  0  0
  5  6  4  0  0  0  0
  1  7  1  0  0  0  0
  3  7  4  0  0  0  0
  6  7  4  0  0  0  0
  6  8  4  0  0  0  0
  8  9  1  0  0  0  0
  9 10  4  0  0  0  0
 10 11  4  0  0  0  0
 11 12  1  0  0  0  0
 11 13  4  0  0  0  0
 13 14  1  0  0  0  0
 13 15  4  0  0  0  0
 15 16  1  0  0  0  0
  9 17  4  0  0  0  0
 15 17  4  0  0  0  0
  8 18  4  0  0  0  0
 18 19  4  0  0  0  0
 19 20  2  0  0  0  0
  1 21  1  0  0  0  0
 18 21  4  0  0  0  0
 20 22  4  0  0  0  0
 21 22  4  0  0  0  0
 22 23  4  0  0  0  0
 23 24  4  0  0  0  0
 24 25  4  0  0  0  0
 25 26  2  0  0  0  0
 26 27  4  0  0  0  0
  1 28  1  0  0  0  0
 24 28  4  0  0  0  0
 27 28  4  0  0  0  0
 27 29  4  0  0  0  0
 29 30  1  0  0  0  0
 30 31  4  0  0  0  0
 31 32  4  0  0  0  0
 32 33  1  0  0  0  0
 32 34  4  0  0  0  0
 34 35  1  0  0  0  0
 34 36  4  0  0  0  0
 36 37  1  0  0  0  0
 30 38  4  0  0  0  0
 36 38  4  0  0  0  0
 29 39  4  0  0  0  0
 39 40  4  0  0  0  0
 40 41  2  0  0  0  0
  2 42  4  0  0  0  0
 41 42  4  0  0  0  0
  1 43  1  0  0  0  0
 39 43  4  0  0  0  0
 42 43  4  0  0  0  0
  2 44  1  0  0  0  0
  4 45  1  0  0  0  0
  5 46  1  0  0  0  0
 10 47  1  0  0  0  0
 12 48  1  0  0  0  0
 14 49  1  0  0  0  0
 16 50  1  0  0  0  0
 17 51  1  0  0  0  0
 19 52  1  0  0  0  0
 20 53  1  0  0  0  0
 25 54  1  0  0  0  0
 26 55  1  0  0  0  0
 31 56  1  0  0  0  0
 33 57  1  0  0  0  0
 35 58  1  0  0  0  0
 37 59  1  0  0  0  0
 38 60  1  0  0  0  0
 40 61  1  0  0  0  0
 41 62  1  0  0  0  0
 64 65  4  0  0  0  0
 65 66  4  0  0  0  0
 66 67  2  0  0  0  0
 67 68  4  0  0  0  0
 63 69  1  0  0  0  0
 65 69  4  0  0  0  0
 68 69  4  0  0  0  0
 68 70  4  0  0  0  0
 70 71  1  0  0  0  0
 71 72  4  0  0  0  0
 72 73  4  0  0  0  0
 73 74  1  0  0  0  0
 73 75  4  0  0  0  0
 75 76  1  0  0  0  0
 75 77  4  0  0  0  0
 77 78  1  0  0  0  0
 71 79  4  0  0  0  0
 77 79  4  0  0  0  0
 70 80  4  0  0  0  0
 80 81  4  0  0  0  0
 81 82  2  0  0  0  0
 63 83  1  0  0  0  0
 80 83  4  0  0  0  0
 82 84  4  0  0  0  0
 83 84  4  0  0  0  0
 84 85  4  0  0  0  0
 85 86  4  0  0  0  0
 86 87  4  0  0  0  0
 87 88  2  0  0  0  0
 88 89  4  0  0  0  0
 63 90  1  0  0  0  0
 86 90  4  0  0  0  0
 89 90  4  0  0  0  0
 89 91  4  0  0  0  0
 91 92  1  0  0  0  0
 92 93  4  0  0  0  0
 93 94  4  0  0  0  0
 94 95  1  0  0  0  0
 94 96  4  0  0  0  0
 96 97  1  0  0  0  0
 96 98  4  0  0  0  0
 98 99  1  0  0  0  0
 92100  4  0  0  0  0
 98100  4  0  0  0  0
 91101  4  0  0  0  0
101102  4  0  0  0  0
102103  2  0  0  0  0
 64104  4  0  0  0  0
103104  4  0  0  0  0
 63105  1  0  0  0  0
101105  4  0  0  0  0
104105  4  0  0  0  0
 64106  1  0  0  0  0
 66107  1  0  0  0  0
 67108  1  0  0  0  0
 72109  1  0  0  0  0
 74110  1  0  0  0  0
 76111  1  0  0  0  0
 78112  1  0  0  0  0
 79113  1  0  0  0  0
 81114  1  0  0  0  0
 82115  1  0  0  0  0
 87116  1  0  0  0  0
 88117  1  0  0  0  0
 93118  1  0  0  0  0
 95119  1  0  0  0  0
 97120  1  0  0  0  0
 99121  1  0  0  0  0
100122  1  0  0  0  0
102123  1  0  0  0  0
103124  1  0  0  0  0
 23125  1  0  0  0  0
125126  3  0  0  0  0
127128  3  0  0  0  0
 85130  4  0  0  0  0
129130  3  0  0  0  0
126132  4  0  0  0  0
132133  4  0  0  0  0
133134  4  0  0  0  0
134135  2  0  0  0  0
135136  4  0  0  0  0
131137  1  0  0  0  0
133137  4  0  0  0  0
136137  4  0  0  0  0
136138  4  0  0  0  0
138139  1  0  0  0  0
139140  4  0  0  0  0
140141  4  0  0  0  0
141142  1  0  0  0  0
141143  4  0  0  0  0
143144  1  0  0  0  0
143145  4  0  0  0  0
145146  1  0  0  0  0
139147  4  0  0  0  0
145147  4  0  0  0  0
138148  4  0  0  0  0
148149  4  0  0  0  0
149150  2  0  0  0  0
131151  1  0  0  0  0
148151  4  0  0  0  0
150152  4  0  0  0  0
151152  4  0  0  0  0
127153  4  0  0  0  0
152153  4  0  0  0  0
153154  4  0  0  0  0
154155  4  0  0  0  0
155156  2  0  0  0  0
156157  4  0  0  0  0
131158  1  0  0  0  0
154158  4  0  0  0  0
157158  4  0  0  0  0
157159  4  0  0  0  0
159160  1  0  0  0  0
160161  4  0  0  0  0
161162  4  0  0  0  0
162163  1  0  0  0  0
162164  4  0  0  0  0
164165  1  0  0  0  0
164166  4  0  0  0  0
166167  1  0  0  0  0
160168  4  0  0  0  0
166168  4  0  0  0  0
159169  4  0  0  0  0
169170  4  0  0  0  0
170171  2  0  0  0  0
132172  4  0  0  0  0
171172  4  0  0  0  0
131173  1  0  0  0  0
169173  4  0  0  0  0
172173  4  0  0  0  0
134174  1  0  0  0  0
135175  1  0  0  0  0
140176  1  0  0  0  0
142177  1  0  0  0  0
144178  1  0  0  0  0
146179  1  0  0  0  0
147180  1  0  0  0  0
149181  1  0  0  0  0
150182  1  0  0  0  0
155183  1  0  0  0  0
156184  1  0  0  0  0
161185  1  0  0  0  0
163186  1  0  0  0  0
165187  1  0  0  0  0
167188  1  0  0  0  0
168189  1  0  0  0  0
170190  1  0  0  0  0
171191  1  0  0  0  0
128193  4  0  0  0  0
193194  4  0  0  0  0
194195  4  0  0  0  0
195196  2  0  0  0  0
196197  4  0  0  0  0
192198  1  0  0  0  0
194198  4  0  0  0  0
197198  4  0  0  0  0
197199  4  0  0  0  0
199200  1  0  0  0  0
200201  4  0  0  0  0
201202  4  0  0  0  0
202203  1  0  0  0  0
202204  4  0  0  0  0
204205  1  0  0  0  0
204206  4  0  0  0  0
206207  1  0  0  0  0
200208  4  0  0  0  0
206208  4  0  0  0  0
199209  4  0  0  0  0
209210  4  0  0  0  0
210211  2  0  0  0  0
192212  1  0  0  0  0
209212  4  0  0  0  0
211213  4  0  0  0  0
212213  4  0  0  0  0
129214  4  0  0  0  0
213214  4  0  0  0  0
214215  4  0  0  0  0
215216  4  0  0  0  0
216217  2  0  0  0  0
217218  4  0  0  0  0
192219  1  0  0  0  0
215219  4  0  0  0  0
218219  4  0  0  0  0
218220  4  0  0  0  0
220221  1  0  0  0  0
221222  4  0  0  0  0
222223  4  0  0  0  0
223224  1  0  0  0  0
223225  4  0  0  0  0
225226  1  0  0  0  0
225227  4  0  0  0  0
227228  1  0  0  0  0
221229  4  0  0  0  0
227229  4  0  0  0  0
220230  4  0  0  0  0
230231  4  0  0  0  0
231232  2  0  0  0  0
193233  4  0  0  0  0
232233  4  0  0  0  0
192234  1  0  0  0  0
230234  4  0  0  0  0
233234  4  0  0  0  0
195235  1  0  0  0  0
196236  1  0  0  0  0
201237  1  0  0  0  0
203238  1  0  0  0  0
205239  1  0  0  0  0
207240  1  0  0  0  0
208241  1  0  0  0  0
210242  1  0  0  0  0
211243  1  0  0  0  0
216244  1  0  0  0  0
217245  1  0  0  0  0
222246  1  0  0  0  0
224247  1  0  0  0  0
226248  1  0  0  0  0
228249  1  0  0  0  0
229250  1  0  0  0  0
231251  1  0  0  0  0
232252  1  0  0  0  0
M  END
