 xtb: 6.5.1 (b24c23e)
          07302205263D

264303  0     0  0            999 V2000
   43.7043    0.1665   -0.4887 Ni  0  0  0  0  0  0  0  0  0  0  0  0
   40.3145    0.2030   -0.4874 C   0  0  0  0  0  0  0  0  0  0  0  0
   40.9768    1.4125   -0.4565 C   0  0  0  0  0  0  0  0  0  0  0  0
   40.3143    2.6812   -0.4517 C   0  0  0  0  0  0  0  0  0  0  0  0
   41.2744    3.6200   -0.2830 C   0  0  0  0  0  0  0  0  0  0  0  0
   42.5231    2.9227   -0.1774 C   0  0  0  0  0  0  0  0  0  0  0  0
   42.3343    1.5722   -0.3286 N   0  0  0  0  0  0  0  0  0  0  0  0
   43.7380    3.5387    0.0954 C   0  0  0  0  0  0  0  0  0  0  0  0
   43.7519    4.9985    0.3538 C   0  0  0  0  0  0  0  0  0  0  0  0
   43.0410    5.5336    1.4241 C   0  0  0  0  0  0  0  0  0  0  0  0
   43.0544    6.9068    1.6657 C   0  0  0  0  0  0  0  0  0  0  0  0
   42.2782    7.4165    2.8243 C   0  0  0  0  0  0  0  0  0  0  0  0
   42.3660    8.7447    2.9853 O   0  0  0  0  0  0  0  0  0  0  0  0
   41.6234    6.7246    3.5610 O   0  0  0  0  0  0  0  0  0  0  0  0
   43.7798    7.7567    0.8310 C   0  0  0  0  0  0  0  0  0  0  0  0
   44.4861    7.2264   -0.2372 C   0  0  0  0  0  0  0  0  0  0  0  0
   44.4752    5.8593   -0.4753 C   0  0  0  0  0  0  0  0  0  0  0  0
   44.9403    2.8443    0.1259 C   0  0  0  0  0  0  0  0  0  0  0  0
   46.2022    3.4431    0.4397 C   0  0  0  0  0  0  0  0  0  0  0  0
   47.1470    2.4931    0.2375 C   0  0  0  0  0  0  0  0  0  0  0  0
   45.1077    1.5201   -0.2109 N   0  0  0  0  0  0  0  0  0  0  0  0
   46.4595    1.3140   -0.1825 C   0  0  0  0  0  0  0  0  0  0  0  0
   47.1132    0.1456   -0.5857 C   0  0  0  0  0  0  0  0  0  0  0  0
   46.4238   -1.0224   -0.9235 C   0  0  0  0  0  0  0  0  0  0  0  0
   47.0738   -2.2236   -1.3411 C   0  0  0  0  0  0  0  0  0  0  0  0
   46.1114   -3.1722   -1.4397 C   0  0  0  0  0  0  0  0  0  0  0  0
   44.8754   -2.5465   -1.0786 C   0  0  0  0  0  0  0  0  0  0  0  0
   45.0745   -1.2129   -0.8032 N   0  0  0  0  0  0  0  0  0  0  0  0
   43.6653   -3.2208   -0.9786 C   0  0  0  0  0  0  0  0  0  0  0  0
   43.6525   -4.6897   -1.1802 C   0  0  0  0  0  0  0  0  0  0  0  0
   44.3843   -5.5260   -0.3343 C   0  0  0  0  0  0  0  0  0  0  0  0
   44.3719   -6.9018   -0.5170 C   0  0  0  0  0  0  0  0  0  0  0  0
   43.6327   -7.4591   -1.5469 C   0  0  0  0  0  0  0  0  0  0  0  0
   42.8995   -6.6335   -2.4006 C   0  0  0  0  0  0  0  0  0  0  0  0
   42.1213   -7.2687   -3.4937 C   0  0  0  0  0  0  0  0  0  0  0  0
   41.4441   -6.3926   -4.2501 O   0  0  0  0  0  0  0  0  0  0  0  0
   42.0832   -8.4547   -3.6998 O   0  0  0  0  0  0  0  0  0  0  0  0
   42.9095   -5.2525   -2.2157 C   0  0  0  0  0  0  0  0  0  0  0  0
   42.4659   -2.5729   -0.7115 C   0  0  0  0  0  0  0  0  0  0  0  0
   41.2027   -3.2398   -0.5846 C   0  0  0  0  0  0  0  0  0  0  0  0
   40.2608   -2.2752   -0.4640 C   0  0  0  0  0  0  0  0  0  0  0  0
   40.9501   -1.0215   -0.4973 C   0  0  0  0  0  0  0  0  0  0  0  0
   42.3042   -1.2138   -0.6109 N   0  0  0  0  0  0  0  0  0  0  0  0
   39.2308    0.2150   -0.4925 H   0  0  0  0  0  0  0  0  0  0  0  0
   39.2498    2.8150   -0.5601 H   0  0  0  0  0  0  0  0  0  0  0  0
   41.1611    4.6908   -0.2355 H   0  0  0  0  0  0  0  0  0  0  0  0
   42.4813    4.8866    2.0907 H   0  0  0  0  0  0  0  0  0  0  0  0
   41.8348    8.9974    3.7579 H   0  0  0  0  0  0  0  0  0  0  0  0
   43.7873    8.8235    1.0191 H   0  0  0  0  0  0  0  0  0  0  0  0
   45.0488    7.8816   -0.8925 H   0  0  0  0  0  0  0  0  0  0  0  0
   45.0195    5.4526   -1.3203 H   0  0  0  0  0  0  0  0  0  0  0  0
   46.3379    4.4587    0.7740 H   0  0  0  0  0  0  0  0  0  0  0  0
   48.2155    2.5685    0.3594 H   0  0  0  0  0  0  0  0  0  0  0  0
   48.1321   -2.3150   -1.5252 H   0  0  0  0  0  0  0  0  0  0  0  0
   46.2177   -4.2029   -1.7362 H   0  0  0  0  0  0  0  0  0  0  0  0
   44.9541   -5.0921    0.4798 H   0  0  0  0  0  0  0  0  0  0  0  0
   44.9413   -7.5389    0.1502 H   0  0  0  0  0  0  0  0  0  0  0  0
   43.6123   -8.5316   -1.7040 H   0  0  0  0  0  0  0  0  0  0  0  0
   40.9651   -6.8842   -4.9368 H   0  0  0  0  0  0  0  0  0  0  0  0
   42.3506   -4.6127   -2.8883 H   0  0  0  0  0  0  0  0  0  0  0  0
   41.0671   -4.3091   -0.5887 H   0  0  0  0  0  0  0  0  0  0  0  0
   39.1930   -2.3828   -0.3583 H   0  0  0  0  0  0  0  0  0  0  0  0
   91.5992    0.2041   -0.1753 Ni  0  0  0  0  0  0  0  0  0  0  0  0
   94.9674    0.0926    0.1824 C   0  0  0  0  0  0  0  0  0  0  0  0
   94.3293   -1.0354   -0.2914 C   0  0  0  0  0  0  0  0  0  0  0  0
   95.0148   -2.2237   -0.6986 C   0  0  0  0  0  0  0  0  0  0  0  0
   94.0644   -3.1114   -1.0737 C   0  0  0  0  0  0  0  0  0  0  0  0
   92.7961   -2.4771   -0.8591 C   0  0  0  0  0  0  0  0  0  0  0  0
   92.9720   -1.1875   -0.4224 N   0  0  0  0  0  0  0  0  0  0  0  0
   91.5712   -3.1194   -0.9860 C   0  0  0  0  0  0  0  0  0  0  0  0
   91.5490   -4.5477   -1.3829 C   0  0  0  0  0  0  0  0  0  0  0  0
   92.1799   -5.5136   -0.6042 C   0  0  0  0  0  0  0  0  0  0  0  0
   92.1595   -6.8542   -0.9868 C   0  0  0  0  0  0  0  0  0  0  0  0
   92.8532   -7.8361   -0.1155 C   0  0  0  0  0  0  0  0  0  0  0  0
   92.7729   -9.0983   -0.5606 O   0  0  0  0  0  0  0  0  0  0  0  0
   93.4418   -7.5505    0.8957 O   0  0  0  0  0  0  0  0  0  0  0  0
   91.5040   -7.2378   -2.1567 C   0  0  0  0  0  0  0  0  0  0  0  0
   90.8717   -6.2782   -2.9318 C   0  0  0  0  0  0  0  0  0  0  0  0
   90.8910   -4.9444   -2.5497 C   0  0  0  0  0  0  0  0  0  0  0  0
   90.3625   -2.4876   -0.7212 C   0  0  0  0  0  0  0  0  0  0  0  0
   89.1000   -3.1618   -0.6953 C   0  0  0  0  0  0  0  0  0  0  0  0
   88.1586   -2.2208   -0.4415 C   0  0  0  0  0  0  0  0  0  0  0  0
   90.1970   -1.1475   -0.4578 N   0  0  0  0  0  0  0  0  0  0  0  0
   88.8463   -0.9746   -0.3238 C   0  0  0  0  0  0  0  0  0  0  0  0
   88.1900    0.2547   -0.2137 C   0  0  0  0  0  0  0  0  0  0  0  0
   88.8775    1.4715   -0.1632 C   0  0  0  0  0  0  0  0  0  0  0  0
   88.2259    2.7420   -0.1928 C   0  0  0  0  0  0  0  0  0  0  0  0
   89.1979    3.6805   -0.0907 C   0  0  0  0  0  0  0  0  0  0  0  0
   90.4393    2.9779    0.0316 C   0  0  0  0  0  0  0  0  0  0  0  0
   90.2324    1.6192   -0.0564 N   0  0  0  0  0  0  0  0  0  0  0  0
   91.6567    3.5926    0.2907 C   0  0  0  0  0  0  0  0  0  0  0  0
   91.6987    5.0671    0.4454 C   0  0  0  0  0  0  0  0  0  0  0  0
   90.9887    5.6989    1.4685 C   0  0  0  0  0  0  0  0  0  0  0  0
   91.0359    7.0787    1.6128 C   0  0  0  0  0  0  0  0  0  0  0  0
   91.7886    7.8435    0.7374 C   0  0  0  0  0  0  0  0  0  0  0  0
   92.5029    7.2232   -0.2887 C   0  0  0  0  0  0  0  0  0  0  0  0
   93.2979    8.0776   -1.2065 C   0  0  0  0  0  0  0  0  0  0  0  0
   93.9466    7.3873   -2.1556 O   0  0  0  0  0  0  0  0  0  0  0  0
   93.3694    9.2771   -1.1262 O   0  0  0  0  0  0  0  0  0  0  0  0
   92.4593    5.8379   -0.4310 C   0  0  0  0  0  0  0  0  0  0  0  0
   92.8397    2.8799    0.4427 C   0  0  0  0  0  0  0  0  0  0  0  0
   94.0827    3.4692    0.8472 C   0  0  0  0  0  0  0  0  0  0  0  0
   95.0033    2.4769    0.8541 C   0  0  0  0  0  0  0  0  0  0  0  0
   94.3255    1.2856    0.4418 C   0  0  0  0  0  0  0  0  0  0  0  0
   92.9925    1.5342    0.2271 N   0  0  0  0  0  0  0  0  0  0  0  0
   96.0418    0.0517    0.3177 H   0  0  0  0  0  0  0  0  0  0  0  0
   96.0868   -2.3399   -0.7026 H   0  0  0  0  0  0  0  0  0  0  0  0
   94.1983   -4.1097   -1.4571 H   0  0  0  0  0  0  0  0  0  0  0  0
   92.6808   -5.2368    0.3171 H   0  0  0  0  0  0  0  0  0  0  0  0
   93.2493   -9.6745    0.0589 H   0  0  0  0  0  0  0  0  0  0  0  0
   91.4915   -8.2794   -2.4536 H   0  0  0  0  0  0  0  0  0  0  0  0
   90.3610   -6.5691   -3.8428 H   0  0  0  0  0  0  0  0  0  0  0  0
   90.4043   -4.1970   -3.1663 H   0  0  0  0  0  0  0  0  0  0  0  0
   88.9635   -4.2212   -0.8388 H   0  0  0  0  0  0  0  0  0  0  0  0
   87.0914   -2.3425   -0.3497 H   0  0  0  0  0  0  0  0  0  0  0  0
   87.1615    2.8823   -0.2898 H   0  0  0  0  0  0  0  0  0  0  0  0
   89.0927    4.7530   -0.0944 H   0  0  0  0  0  0  0  0  0  0  0  0
   90.4100    5.1007    2.1633 H   0  0  0  0  0  0  0  0  0  0  0  0
   90.4835    7.5554    2.4144 H   0  0  0  0  0  0  0  0  0  0  0  0
   91.8353    8.9222    0.8354 H   0  0  0  0  0  0  0  0  0  0  0  0
   94.4378    8.0142   -2.7112 H   0  0  0  0  0  0  0  0  0  0  0  0
   93.0074    5.3583   -1.2334 H   0  0  0  0  0  0  0  0  0  0  0  0
   94.2169    4.5080    1.1017 H   0  0  0  0  0  0  0  0  0  0  0  0
   96.0519    2.5293    1.1003 H   0  0  0  0  0  0  0  0  0  0  0  0
   52.3079    0.1983   -0.8342 C   0  0  0  0  0  0  0  0  0  0  0  0
   51.0820    0.1750   -0.7681 C   0  0  0  0  0  0  0  0  0  0  0  0
   49.7388    0.1561   -0.7029 C   0  0  0  0  0  0  0  0  0  0  0  0
   48.5167    0.1456   -0.6457 C   0  0  0  0  0  0  0  0  0  0  0  0
   53.6499    0.2351   -0.9118 C   0  0  0  0  0  0  0  0  0  0  0  0
   54.8704    0.2780   -0.9893 C   0  0  0  0  0  0  0  0  0  0  0  0
   68.2728    0.3428   -0.7525 C   0  0  0  0  0  0  0  0  0  0  0  0
   67.0447    0.3331   -0.7713 C   0  0  0  0  0  0  0  0  0  0  0  0
   65.7010    0.3355   -0.8214 C   0  0  0  0  0  0  0  0  0  0  0  0
   64.4795    0.3487   -0.8945 C   0  0  0  0  0  0  0  0  0  0  0  0
   69.6172    0.3620   -0.7680 C   0  0  0  0  0  0  0  0  0  0  0  0
   70.8398    0.3954   -0.8094 C   0  0  0  0  0  0  0  0  0  0  0  0
   84.2184    0.3252   -0.2898 C   0  0  0  0  0  0  0  0  0  0  0  0
   82.9930    0.3505   -0.3635 C   0  0  0  0  0  0  0  0  0  0  0  0
   81.6529    0.3889   -0.4683 C   0  0  0  0  0  0  0  0  0  0  0  0
   80.4356    0.4217   -0.5888 C   0  0  0  0  0  0  0  0  0  0  0  0
   85.5620    0.2963   -0.2381 C   0  0  0  0  0  0  0  0  0  0  0  0
   86.7852    0.2741   -0.2154 C   0  0  0  0  0  0  0  0  0  0  0  0
   59.6765    0.4267   -1.2170 Ni  0  0  0  0  0  0  0  0  0  0  0  0
   56.2704    0.3335   -1.0797 C   0  0  0  0  0  0  0  0  0  0  0  0
   56.9425   -0.6782   -1.7738 C   0  0  0  0  0  0  0  0  0  0  0  0
   56.2759   -1.7127   -2.4975 C   0  0  0  0  0  0  0  0  0  0  0  0
   57.2408   -2.5253   -2.9929 C   0  0  0  0  0  0  0  0  0  0  0  0
   58.4935   -2.0034   -2.5377 C   0  0  0  0  0  0  0  0  0  0  0  0
   58.2987   -0.8370   -1.8320 N   0  0  0  0  0  0  0  0  0  0  0  0
   59.7113   -2.6533   -2.6882 C   0  0  0  0  0  0  0  0  0  0  0  0
   59.7424   -3.9684   -3.3713 C   0  0  0  0  0  0  0  0  0  0  0  0
   59.0123   -5.0456   -2.8771 C   0  0  0  0  0  0  0  0  0  0  0  0
   59.0465   -6.2795   -3.5255 C   0  0  0  0  0  0  0  0  0  0  0  0
   58.2450   -7.3891   -2.9500 C   0  0  0  0  0  0  0  0  0  0  0  0
   58.3519   -8.5376   -3.6333 O   0  0  0  0  0  0  0  0  0  0  0  0
   57.5559   -7.2906   -1.9672 O   0  0  0  0  0  0  0  0  0  0  0  0
   59.8147   -6.4430   -4.6780 C   0  0  0  0  0  0  0  0  0  0  0  0
   60.5448   -5.3725   -5.1704 C   0  0  0  0  0  0  0  0  0  0  0  0
   60.5126   -4.1454   -4.5233 C   0  0  0  0  0  0  0  0  0  0  0  0
   60.9029   -2.1418   -2.1883 C   0  0  0  0  0  0  0  0  0  0  0  0
   62.1410   -2.8591   -2.1806 C   0  0  0  0  0  0  0  0  0  0  0  0
   63.0757   -2.0216   -1.6686 C   0  0  0  0  0  0  0  0  0  0  0  0
   61.0727   -0.8848   -1.6565 N   0  0  0  0  0  0  0  0  0  0  0  0
   62.4089   -0.7928   -1.3774 C   0  0  0  0  0  0  0  0  0  0  0  0
   63.0798    0.3750   -1.0012 C   0  0  0  0  0  0  0  0  0  0  0  0
   62.4122    1.5873   -0.7952 C   0  0  0  0  0  0  0  0  0  0  0  0
   63.0837    2.8276   -0.5732 C   0  0  0  0  0  0  0  0  0  0  0  0
   62.1216    3.7612   -0.3732 C   0  0  0  0  0  0  0  0  0  0  0  0
   60.8650    3.0793   -0.4394 C   0  0  0  0  0  0  0  0  0  0  0  0
   61.0562    1.7506   -0.7479 N   0  0  0  0  0  0  0  0  0  0  0  0
   59.6446    3.6596   -0.1215 C   0  0  0  0  0  0  0  0  0  0  0  0
   59.6133    5.0799    0.3030 C   0  0  0  0  0  0  0  0  0  0  0  0
   58.8789    6.0144   -0.4307 C   0  0  0  0  0  0  0  0  0  0  0  0
   58.8431    7.3466   -0.0434 C   0  0  0  0  0  0  0  0  0  0  0  0
   59.5340    7.7609    1.0830 C   0  0  0  0  0  0  0  0  0  0  0  0
   60.2662    6.8351    1.8278 C   0  0  0  0  0  0  0  0  0  0  0  0
   60.9879    7.3179    3.0324 C   0  0  0  0  0  0  0  0  0  0  0  0
   61.6641    6.3548    3.6746 O   0  0  0  0  0  0  0  0  0  0  0  0
   60.9826    8.4601    3.4141 O   0  0  0  0  0  0  0  0  0  0  0  0
   60.3059    5.4983    1.4369 C   0  0  0  0  0  0  0  0  0  0  0  0
   58.4477    2.9538   -0.1450 C   0  0  0  0  0  0  0  0  0  0  0  0
   57.2043    3.4724    0.3367 C   0  0  0  0  0  0  0  0  0  0  0  0
   56.2678    2.5195    0.1077 C   0  0  0  0  0  0  0  0  0  0  0  0
   56.9388    1.4299   -0.5259 C   0  0  0  0  0  0  0  0  0  0  0  0
   58.2785    1.6823   -0.6409 N   0  0  0  0  0  0  0  0  0  0  0  0
   55.2067   -1.7884   -2.6125 H   0  0  0  0  0  0  0  0  0  0  0  0
   57.1222   -3.4035   -3.6061 H   0  0  0  0  0  0  0  0  0  0  0  0
   58.4224   -4.9423   -1.9730 H   0  0  0  0  0  0  0  0  0  0  0  0
   57.8019   -9.2084   -3.1969 H   0  0  0  0  0  0  0  0  0  0  0  0
   59.8381   -7.4018   -5.1815 H   0  0  0  0  0  0  0  0  0  0  0  0
   61.1434   -5.4922   -6.0663 H   0  0  0  0  0  0  0  0  0  0  0  0
   61.0776   -3.3089   -4.9193 H   0  0  0  0  0  0  0  0  0  0  0  0
   62.2664   -3.8768   -2.5125 H   0  0  0  0  0  0  0  0  0  0  0  0
   64.1266   -2.2010   -1.5090 H   0  0  0  0  0  0  0  0  0  0  0  0
   64.1541    2.9549   -0.5827 H   0  0  0  0  0  0  0  0  0  0  0  0
   62.2440    4.8163   -0.1911 H   0  0  0  0  0  0  0  0  0  0  0  0
   58.3447    5.6923   -1.3175 H   0  0  0  0  0  0  0  0  0  0  0  0
   58.2733    8.0617   -0.6256 H   0  0  0  0  0  0  0  0  0  0  0  0
   59.5159    8.7973    1.4005 H   0  0  0  0  0  0  0  0  0  0  0  0
   62.1038    6.7480    4.4460 H   0  0  0  0  0  0  0  0  0  0  0  0
   60.8624    4.7789    2.0260 H   0  0  0  0  0  0  0  0  0  0  0  0
   57.0768    4.4363    0.8018 H   0  0  0  0  0  0  0  0  0  0  0  0
   55.2131    2.5441    0.3291 H   0  0  0  0  0  0  0  0  0  0  0  0
   75.6452    0.5323   -1.0394 Ni  0  0  0  0  0  0  0  0  0  0  0  0
   72.2408    0.4419   -0.8903 C   0  0  0  0  0  0  0  0  0  0  0  0
   72.9118   -0.6002   -1.5396 C   0  0  0  0  0  0  0  0  0  0  0  0
   72.2431   -1.6617   -2.2214 C   0  0  0  0  0  0  0  0  0  0  0  0
   73.2072   -2.4772   -2.7136 C   0  0  0  0  0  0  0  0  0  0  0  0
   74.4625   -1.9324   -2.2935 C   0  0  0  0  0  0  0  0  0  0  0  0
   74.2679   -0.7515   -1.6117 N   0  0  0  0  0  0  0  0  0  0  0  0
   75.6843   -2.5719   -2.4528 C   0  0  0  0  0  0  0  0  0  0  0  0
   75.7252   -3.8874   -3.1351 C   0  0  0  0  0  0  0  0  0  0  0  0
   75.0223   -4.9783   -2.6322 C   0  0  0  0  0  0  0  0  0  0  0  0
   75.0685   -6.2098   -3.2846 C   0  0  0  0  0  0  0  0  0  0  0  0
   74.2970   -7.3355   -2.6994 C   0  0  0  0  0  0  0  0  0  0  0  0
   74.4132   -8.4798   -3.3884 O   0  0  0  0  0  0  0  0  0  0  0  0
   73.6246   -7.2534   -1.7038 O   0  0  0  0  0  0  0  0  0  0  0  0
   75.8209   -6.3568   -4.4496 C   0  0  0  0  0  0  0  0  0  0  0  0
   76.5248   -5.2726   -4.9501 C   0  0  0  0  0  0  0  0  0  0  0  0
   76.4814   -4.0482   -4.2988 C   0  0  0  0  0  0  0  0  0  0  0  0
   76.8747   -2.0519   -1.9580 C   0  0  0  0  0  0  0  0  0  0  0  0
   78.1107   -2.7721   -1.9309 C   0  0  0  0  0  0  0  0  0  0  0  0
   79.0378   -1.9390   -1.3979 C   0  0  0  0  0  0  0  0  0  0  0  0
   77.0400   -0.7940   -1.4281 N   0  0  0  0  0  0  0  0  0  0  0  0
   78.3707   -0.7070   -1.1216 C   0  0  0  0  0  0  0  0  0  0  0  0
   79.0407    0.4611   -0.7444 C   0  0  0  0  0  0  0  0  0  0  0  0
   78.3803    1.6863   -0.5992 C   0  0  0  0  0  0  0  0  0  0  0  0
   79.0586    2.9290   -0.4157 C   0  0  0  0  0  0  0  0  0  0  0  0
   78.1015    3.8818   -0.2982 C   0  0  0  0  0  0  0  0  0  0  0  0
   76.8397    3.2099   -0.3685 C   0  0  0  0  0  0  0  0  0  0  0  0
   77.0256    1.8654   -0.6025 N   0  0  0  0  0  0  0  0  0  0  0  0
   75.6166    3.8157   -0.1138 C   0  0  0  0  0  0  0  0  0  0  0  0
   75.5846    5.2600    0.2197 C   0  0  0  0  0  0  0  0  0  0  0  0
   74.8678    6.1474   -0.5864 C   0  0  0  0  0  0  0  0  0  0  0  0
   74.8327    7.5024   -0.2884 C   0  0  0  0  0  0  0  0  0  0  0  0
   75.5074    7.9871    0.8196 C   0  0  0  0  0  0  0  0  0  0  0  0
   76.2210    7.1091    1.6367 C   0  0  0  0  0  0  0  0  0  0  0  0
   76.9268    7.6674    2.8178 C   0  0  0  0  0  0  0  0  0  0  0  0
   77.5847    6.7454    3.5351 O   0  0  0  0  0  0  0  0  0  0  0  0
   76.9244    8.8327    3.1215 O   0  0  0  0  0  0  0  0  0  0  0  0
   76.2589    5.7490    1.3362 C   0  0  0  0  0  0  0  0  0  0  0  0
   74.4168    3.1143   -0.1122 C   0  0  0  0  0  0  0  0  0  0  0  0
   73.1715    3.6624    0.3306 C   0  0  0  0  0  0  0  0  0  0  0  0
   72.2362    2.6958    0.1626 C   0  0  0  0  0  0  0  0  0  0  0  0
   72.9087    1.5687   -0.4002 C   0  0  0  0  0  0  0  0  0  0  0  0
   74.2484    1.8145   -0.5284 N   0  0  0  0  0  0  0  0  0  0  0  0
   71.1730   -1.7509   -2.3159 H   0  0  0  0  0  0  0  0  0  0  0  0
   73.0863   -3.3722   -3.3013 H   0  0  0  0  0  0  0  0  0  0  0  0
   74.4452   -4.8879   -1.7185 H   0  0  0  0  0  0  0  0  0  0  0  0
   73.8839   -9.1622   -2.9444 H   0  0  0  0  0  0  0  0  0  0  0  0
   75.8529   -7.3137   -4.9563 H   0  0  0  0  0  0  0  0  0  0  0  0
   77.1116   -5.3796   -5.8554 H   0  0  0  0  0  0  0  0  0  0  0  0
   77.0269   -3.2012   -4.6997 H   0  0  0  0  0  0  0  0  0  0  0  0
   78.2389   -3.7896   -2.2623 H   0  0  0  0  0  0  0  0  0  0  0  0
   80.0848   -2.1225   -1.2185 H   0  0  0  0  0  0  0  0  0  0  0  0
   80.1302    3.0449   -0.3967 H   0  0  0  0  0  0  0  0  0  0  0  0
   78.2311    4.9437   -0.1681 H   0  0  0  0  0  0  0  0  0  0  0  0
   74.3468    5.7699   -1.4591 H   0  0  0  0  0  0  0  0  0  0  0  0
   74.2768    8.1801   -0.9262 H   0  0  0  0  0  0  0  0  0  0  0  0
   75.4908    9.0425    1.0671 H   0  0  0  0  0  0  0  0  0  0  0  0
   78.0150    7.1872    4.2852 H   0  0  0  0  0  0  0  0  0  0  0  0
   76.7997    5.0676    1.9822 H   0  0  0  0  0  0  0  0  0  0  0  0
   73.0426    4.6541    0.7327 H   0  0  0  0  0  0  0  0  0  0  0  0
   71.1811    2.7335    0.3804 H   0  0  0  0  0  0  0  0  0  0  0  0
  2  3  4  0  0  0  0
  3  4  4  0  0  0  0
  4  5  2  0  0  0  0
  5  6  4  0  0  0  0
  1  7  1  0  0  0  0
  3  7  4  0  0  0  0
  6  7  4  0  0  0  0
  6  8  4  0  0  0  0
  8  9  1  0  0  0  0
  9 10  4  0  0  0  0
 10 11  4  0  0  0  0
 11 12  1  0  0  0  0
 12 13  4  0  0  0  0
 12 14  2  0  0  0  0
 11 15  4  0  0  0  0
 15 16  4  0  0  0  0
  9 17  4  0  0  0  0
 16 17  4  0  0  0  0
  8 18  4  0  0  0  0
 18 19  4  0  0  0  0
 19 20  2  0  0  0  0
  1 21  1  0  0  0  0
 18 21  4  0  0  0  0
 20 22  4  0  0  0  0
 21 22  4  0  0  0  0
 22 23  4  0  0  0  0
 23 24  4  0  0  0  0
 24 25  4  0  0  0  0
 25 26  2  0  0  0  0
 26 27  4  0  0  0  0
  1 28  1  0  0  0  0
 24 28  4  0  0  0  0
 27 28  4  0  0  0  0
 27 29  4  0  0  0  0
 29 30  1  0  0  0  0
 30 31  4  0  0  0  0
 31 32  4  0  0  0  0
 32 33  4  0  0  0  0
 33 34  4  0  0  0  0
 34 35  1  0  0  0  0
 35 36  4  0  0  0  0
 35 37  2  0  0  0  0
 30 38  4  0  0  0  0
 34 38  4  0  0  0  0
 29 39  4  0  0  0  0
 39 40  4  0  0  0  0
 40 41  2  0  0  0  0
  2 42  4  0  0  0  0
 41 42  4  0  0  0  0
  1 43  1  0  0  0  0
 39 43  4  0  0  0  0
 42 43  4  0  0  0  0
  2 44  1  0  0  0  0
  4 45  1  0  0  0  0
  5 46  1  0  0  0  0
 10 47  1  0  0  0  0
 13 48  1  0  0  0  0
 15 49  1  0  0  0  0
 16 50  1  0  0  0  0
 17 51  1  0  0  0  0
 19 52  1  0  0  0  0
 20 53  1  0  0  0  0
 25 54  1  0  0  0  0
 26 55  1  0  0  0  0
 31 56  1  0  0  0  0
 32 57  1  0  0  0  0
 33 58  1  0  0  0  0
 36 59  1  0  0  0  0
 38 60  1  0  0  0  0
 40 61  1  0  0  0  0
 41 62  1  0  0  0  0
 64 65  4  0  0  0  0
 65 66  4  0  0  0  0
 66 67  2  0  0  0  0
 67 68  4  0  0  0  0
 63 69  1  0  0  0  0
 65 69  4  0  0  0  0
 68 69  4  0  0  0  0
 68 70  4  0  0  0  0
 70 71  1  0  0  0  0
 71 72  4  0  0  0  0
 72 73  4  0  0  0  0
 73 74  1  0  0  0  0
 74 75  4  0  0  0  0
 74 76  2  0  0  0  0
 73 77  4  0  0  0  0
 77 78  4  0  0  0  0
 71 79  4  0  0  0  0
 78 79  4  0  0  0  0
 70 80  4  0  0  0  0
 80 81  4  0  0  0  0
 81 82  2  0  0  0  0
 63 83  1  0  0  0  0
 80 83  4  0  0  0  0
 82 84  4  0  0  0  0
 83 84  4  0  0  0  0
 84 85  4  0  0  0  0
 85 86  4  0  0  0  0
 86 87  4  0  0  0  0
 87 88  2  0  0  0  0
 88 89  4  0  0  0  0
 63 90  1  0  0  0  0
 86 90  4  0  0  0  0
 89 90  4  0  0  0  0
 89 91  4  0  0  0  0
 91 92  1  0  0  0  0
 92 93  4  0  0  0  0
 93 94  4  0  0  0  0
 94 95  4  0  0  0  0
 95 96  4  0  0  0  0
 96 97  1  0  0  0  0
 97 98  4  0  0  0  0
 97 99  2  0  0  0  0
 92100  4  0  0  0  0
 96100  4  0  0  0  0
 91101  4  0  0  0  0
101102  4  0  0  0  0
102103  2  0  0  0  0
 64104  4  0  0  0  0
103104  4  0  0  0  0
 63105  1  0  0  0  0
101105  4  0  0  0  0
104105  4  0  0  0  0
 64106  1  0  0  0  0
 66107  1  0  0  0  0
 67108  1  0  0  0  0
 72109  1  0  0  0  0
 75110  1  0  0  0  0
 77111  1  0  0  0  0
 78112  1  0  0  0  0
 79113  1  0  0  0  0
 81114  1  0  0  0  0
 82115  1  0  0  0  0
 87116  1  0  0  0  0
 88117  1  0  0  0  0
 93118  1  0  0  0  0
 94119  1  0  0  0  0
 95120  1  0  0  0  0
 98121  1  0  0  0  0
100122  1  0  0  0  0
102123  1  0  0  0  0
103124  1  0  0  0  0
125126  3  0  0  0  0
126127  4  0  0  0  0
 23128  4  0  0  0  0
127128  3  0  0  0  0
125129  4  0  0  0  0
129130  3  0  0  0  0
131132  3  0  0  0  0
132133  4  0  0  0  0
133134  3  0  0  0  0
131135  4  0  0  0  0
135136  3  0  0  0  0
137138  3  0  0  0  0
138139  4  0  0  0  0
139140  3  0  0  0  0
137141  4  0  0  0  0
 85142  4  0  0  0  0
141142  3  0  0  0  0
130144  4  0  0  0  0
144145  4  0  0  0  0
145146  4  0  0  0  0
146147  2  0  0  0  0
147148  4  0  0  0  0
143149  1  0  0  0  0
145149  4  0  0  0  0
148149  4  0  0  0  0
148150  4  0  0  0  0
150151  1  0  0  0  0
151152  4  0  0  0  0
152153  4  0  0  0  0
153154  1  0  0  0  0
154155  4  0  0  0  0
154156  2  0  0  0  0
153157  4  0  0  0  0
157158  4  0  0  0  0
151159  4  0  0  0  0
158159  4  0  0  0  0
150160  4  0  0  0  0
160161  4  0  0  0  0
161162  2  0  0  0  0
143163  1  0  0  0  0
160163  4  0  0  0  0
162164  4  0  0  0  0
163164  4  0  0  0  0
134165  4  0  0  0  0
164165  4  0  0  0  0
165166  4  0  0  0  0
166167  4  0  0  0  0
167168  2  0  0  0  0
168169  4  0  0  0  0
143170  1  0  0  0  0
166170  4  0  0  0  0
169170  4  0  0  0  0
169171  4  0  0  0  0
171172  1  0  0  0  0
172173  4  0  0  0  0
173174  4  0  0  0  0
174175  4  0  0  0  0
175176  4  0  0  0  0
176177  1  0  0  0  0
177178  4  0  0  0  0
177179  2  0  0  0  0
172180  4  0  0  0  0
176180  4  0  0  0  0
171181  4  0  0  0  0
181182  4  0  0  0  0
182183  2  0  0  0  0
144184  4  0  0  0  0
183184  4  0  0  0  0
143185  1  0  0  0  0
181185  4  0  0  0  0
184185  4  0  0  0  0
146186  1  0  0  0  0
147187  1  0  0  0  0
152188  1  0  0  0  0
155189  1  0  0  0  0
157190  1  0  0  0  0
158191  1  0  0  0  0
159192  1  0  0  0  0
161193  1  0  0  0  0
162194  1  0  0  0  0
167195  1  0  0  0  0
168196  1  0  0  0  0
173197  1  0  0  0  0
174198  1  0  0  0  0
175199  1  0  0  0  0
178200  1  0  0  0  0
180201  1  0  0  0  0
182202  1  0  0  0  0
183203  1  0  0  0  0
136205  4  0  0  0  0
205206  4  0  0  0  0
206207  4  0  0  0  0
207208  2  0  0  0  0
208209  4  0  0  0  0
204210  1  0  0  0  0
206210  4  0  0  0  0
209210  4  0  0  0  0
209211  4  0  0  0  0
211212  1  0  0  0  0
212213  4  0  0  0  0
213214  4  0  0  0  0
214215  1  0  0  0  0
215216  4  0  0  0  0
215217  2  0  0  0  0
214218  4  0  0  0  0
218219  4  0  0  0  0
212220  4  0  0  0  0
219220  4  0  0  0  0
211221  4  0  0  0  0
221222  4  0  0  0  0
222223  2  0  0  0  0
204224  1  0  0  0  0
221224  4  0  0  0  0
223225  4  0  0  0  0
224225  4  0  0  0  0
140226  4  0  0  0  0
225226  4  0  0  0  0
226227  4  0  0  0  0
227228  4  0  0  0  0
228229  2  0  0  0  0
229230  4  0  0  0  0
204231  1  0  0  0  0
227231  4  0  0  0  0
230231  4  0  0  0  0
230232  4  0  0  0  0
232233  1  0  0  0  0
233234  4  0  0  0  0
234235  4  0  0  0  0
235236  4  0  0  0  0
236237  4  0  0  0  0
237238  1  0  0  0  0
238239  4  0  0  0  0
238240  2  0  0  0  0
233241  4  0  0  0  0
237241  4  0  0  0  0
232242  4  0  0  0  0
242243  4  0  0  0  0
243244  2  0  0  0  0
205245  4  0  0  0  0
244245  4  0  0  0  0
204246  1  0  0  0  0
242246  4  0  0  0  0
245246  4  0  0  0  0
207247  1  0  0  0  0
208248  1  0  0  0  0
213249  1  0  0  0  0
216250  1  0  0  0  0
218251  1  0  0  0  0
219252  1  0  0  0  0
220253  1  0  0  0  0
222254  1  0  0  0  0
223255  1  0  0  0  0
228256  1  0  0  0  0
229257  1  0  0  0  0
234258  1  0  0  0  0
235259  1  0  0  0  0
236260  1  0  0  0  0
239261  1  0  0  0  0
241262  1  0  0  0  0
243263  1  0  0  0  0
244264  1  0  0  0  0
M  END
