 xtb: 6.5.1 (b24c23e)
          07292216143D

 80 95  0     0  0            999 V2000
    5.2422   -0.0310    0.0162 Fe  0  0  0  0  0  0  0  0  0  0  0  0
    1.8299   -0.0569   -0.0511 C   0  0  0  0  0  0  0  0  0  0  0  0
    2.5009   -0.9018   -0.9110 C   0  0  0  0  0  0  0  0  0  0  0  0
    1.8473   -1.8024   -1.8153 C   0  0  0  0  0  0  0  0  0  0  0  0
    2.8243   -2.4621   -2.4807 C   0  0  0  0  0  0  0  0  0  0  0  0
    4.0718   -1.9633   -1.9808 C   0  0  0  0  0  0  0  0  0  0  0  0
    3.8616   -1.0045   -1.0273 N   0  0  0  0  0  0  0  0  0  0  0  0
    5.3044   -2.4068   -2.4170 C   0  0  0  0  0  0  0  0  0  0  0  0
    6.5110   -1.9430   -1.9391 C   0  0  0  0  0  0  0  0  0  0  0  0
    7.7807   -2.4244   -2.3935 C   0  0  0  0  0  0  0  0  0  0  0  0
    8.7242   -1.7448   -1.6989 C   0  0  0  0  0  0  0  0  0  0  0  0
    6.6782   -0.9729   -0.9804 N   0  0  0  0  0  0  0  0  0  0  0  0
    8.0269   -0.8494   -0.8263 C   0  0  0  0  0  0  0  0  0  0  0  0
    8.6753    0.0379    0.0409 C   0  0  0  0  0  0  0  0  0  0  0  0
    7.9812    0.9132    0.8840 C   0  0  0  0  0  0  0  0  0  0  0  0
    8.6302    1.8236    1.7777 C   0  0  0  0  0  0  0  0  0  0  0  0
    7.6500    2.4887    2.4348 C   0  0  0  0  0  0  0  0  0  0  0  0
    6.4064    1.9798    1.9398 C   0  0  0  0  0  0  0  0  0  0  0  0
    6.6258    1.0193    0.9822 N   0  0  0  0  0  0  0  0  0  0  0  0
    5.1745    2.4094    2.3843 C   0  0  0  0  0  0  0  0  0  0  0  0
    3.9670    1.9251    1.9218 C   0  0  0  0  0  0  0  0  0  0  0  0
    2.6932    2.3782    2.3987 C   0  0  0  0  0  0  0  0  0  0  0  0
    1.7531    1.6853    1.7143 C   0  0  0  0  0  0  0  0  0  0  0  0
    2.4551    0.8106    0.8211 C   0  0  0  0  0  0  0  0  0  0  0  0
    3.8087    0.9695    0.9549 N   0  0  0  0  0  0  0  0  0  0  0  0
    0.7460   -0.0764   -0.0604 H   0  0  0  0  0  0  0  0  0  0  0  0
    0.7776   -1.9015   -1.9106 H   0  0  0  0  0  0  0  0  0  0  0  0
    2.7315   -3.2210   -3.2415 H   0  0  0  0  0  0  0  0  0  0  0  0
    5.3249   -3.1742   -3.1827 H   0  0  0  0  0  0  0  0  0  0  0  0
    7.9121   -3.1861   -3.1455 H   0  0  0  0  0  0  0  0  0  0  0  0
    9.7975   -1.8272   -1.7598 H   0  0  0  0  0  0  0  0  0  0  0  0
    9.6991    1.9253    1.8767 H   0  0  0  0  0  0  0  0  0  0  0  0
    7.7404    3.2533    3.1900 H   0  0  0  0  0  0  0  0  0  0  0  0
    5.1520    3.1768    3.1500 H   0  0  0  0  0  0  0  0  0  0  0  0
    2.5592    3.1303    3.1601 H   0  0  0  0  0  0  0  0  0  0  0  0
    0.6788    1.7441    1.7912 H   0  0  0  0  0  0  0  0  0  0  0  0
   23.8443    0.0077    0.0321 Fe  0  0  0  0  0  0  0  0  0  0  0  0
   27.2566    0.0757   -0.0045 C   0  0  0  0  0  0  0  0  0  0  0  0
   26.5842    1.2788   -0.0705 C   0  0  0  0  0  0  0  0  0  0  0  0
   27.2364    2.5542   -0.1330 C   0  0  0  0  0  0  0  0  0  0  0  0
   26.2585    3.4890   -0.1785 C   0  0  0  0  0  0  0  0  0  0  0  0
   25.0117    2.7823   -0.1437 C   0  0  0  0  0  0  0  0  0  0  0  0
   25.2234    1.4316   -0.0852 N   0  0  0  0  0  0  0  0  0  0  0  0
   23.7784    3.4025   -0.1668 C   0  0  0  0  0  0  0  0  0  0  0  0
   22.5726    2.7364   -0.1264 C   0  0  0  0  0  0  0  0  0  0  0  0
   21.3021    3.3967   -0.1391 C   0  0  0  0  0  0  0  0  0  0  0  0
   20.3598    2.4254   -0.0844 C   0  0  0  0  0  0  0  0  0  0  0  0
   22.4069    1.3733   -0.0712 N   0  0  0  0  0  0  0  0  0  0  0  0
   21.0585    1.1767   -0.0418 C   0  0  0  0  0  0  0  0  0  0  0  0
   20.4112   -0.0639    0.0018 C   0  0  0  0  0  0  0  0  0  0  0  0
   21.1065   -1.2780    0.0378 C   0  0  0  0  0  0  0  0  0  0  0  0
   20.4590   -2.5536    0.0870 C   0  0  0  0  0  0  0  0  0  0  0  0
   21.4403   -3.4865    0.1275 C   0  0  0  0  0  0  0  0  0  0  0  0
   22.6831   -2.7754    0.1039 C   0  0  0  0  0  0  0  0  0  0  0  0
   22.4620   -1.4209    0.0403 N   0  0  0  0  0  0  0  0  0  0  0  0
   23.9157   -3.3908    0.1446 C   0  0  0  0  0  0  0  0  0  0  0  0
   25.1224   -2.7200    0.1270 C   0  0  0  0  0  0  0  0  0  0  0  0
   26.3970   -3.3747    0.1741 C   0  0  0  0  0  0  0  0  0  0  0  0
   27.3361   -2.4008    0.1313 C   0  0  0  0  0  0  0  0  0  0  0  0
   26.6327   -1.1535    0.0586 C   0  0  0  0  0  0  0  0  0  0  0  0
   25.2793   -1.3624    0.0529 N   0  0  0  0  0  0  0  0  0  0  0  0
   28.3405    0.0975    0.0001 H   0  0  0  0  0  0  0  0  0  0  0  0
   28.3061    2.6927   -0.1383 H   0  0  0  0  0  0  0  0  0  0  0  0
   26.3501    4.5625   -0.2295 H   0  0  0  0  0  0  0  0  0  0  0  0
   23.7567    4.4854   -0.2156 H   0  0  0  0  0  0  0  0  0  0  0  0
   21.1695    4.4661   -0.1821 H   0  0  0  0  0  0  0  0  0  0  0  0
   19.2863    2.5260   -0.0749 H   0  0  0  0  0  0  0  0  0  0  0  0
   19.3903   -2.6969    0.0910 H   0  0  0  0  0  0  0  0  0  0  0  0
   21.3512   -4.5603    0.1727 H   0  0  0  0  0  0  0  0  0  0  0  0
   23.9394   -4.4736    0.1960 H   0  0  0  0  0  0  0  0  0  0  0  0
   26.5321   -4.4432    0.2325 H   0  0  0  0  0  0  0  0  0  0  0  0
   28.4104   -2.4949    0.1471 H   0  0  0  0  0  0  0  0  0  0  0  0
   10.0773    0.0445    0.0634 C   0  0  0  0  0  0  0  0  0  0  0  0
   11.3029    0.0286    0.0688 C   0  0  0  0  0  0  0  0  0  0  0  0
   12.6437    0.0107    0.0672 C   0  0  0  0  0  0  0  0  0  0  0  0
   13.8753   -0.0194    0.0574 C   0  0  0  0  0  0  0  0  0  0  0  0
   15.2111   -0.0462    0.0484 C   0  0  0  0  0  0  0  0  0  0  0  0
   16.4428   -0.0725    0.0372 C   0  0  0  0  0  0  0  0  0  0  0  0
   17.7835   -0.0844    0.0210 C   0  0  0  0  0  0  0  0  0  0  0  0
   19.0092   -0.0849    0.0127 C   0  0  0  0  0  0  0  0  0  0  0  0
  2  3  4  0  0  0  0
  3  4  1  0  0  0  0
  4  5  2  0  0  0  0
  5  6  4  0  0  0  0
  1  7  1  0  0  0  0
  3  7  4  0  0  0  0
  6  7  4  0  0  0  0
  6  8  4  0  0  0  0
  8  9  4  0  0  0  0
  9 10  4  0  0  0  0
 10 11  2  0  0  0  0
  1 12  1  0  0  0  0
  9 12  4  0  0  0  0
 11 13  4  0  0  0  0
 12 13  4  0  0  0  0
 13 14  4  0  0  0  0
 14 15  4  0  0  0  0
 15 16  4  0  0  0  0
 16 17  2  0  0  0  0
 17 18  4  0  0  0  0
  1 19  1  0  0  0  0
 15 19  4  0  0  0  0
 18 19  4  0  0  0  0
 18 20  4  0  0  0  0
 20 21  4  0  0  0  0
 21 22  4  0  0  0  0
 22 23  2  0  0  0  0
  2 24  4  0  0  0  0
 23 24  1  0  0  0  0
  1 25  1  0  0  0  0
 21 25  4  0  0  0  0
 24 25  4  0  0  0  0
  2 26  1  0  0  0  0
  4 27  1  0  0  0  0
  5 28  1  0  0  0  0
  8 29  1  0  0  0  0
 10 30  1  0  0  0  0
 11 31  1  0  0  0  0
 16 32  1  0  0  0  0
 17 33  1  0  0  0  0
 20 34  1  0  0  0  0
 22 35  1  0  0  0  0
 23 36  1  0  0  0  0
 38 39  4  0  0  0  0
 39 40  1  0  0  0  0
 40 41  2  0  0  0  0
 41 42  4  0  0  0  0
 37 43  1  0  0  0  0
 39 43  4  0  0  0  0
 42 43  4  0  0  0  0
 42 44  4  0  0  0  0
 44 45  4  0  0  0  0
 45 46  4  0  0  0  0
 46 47  2  0  0  0  0
 37 48  1  0  0  0  0
 45 48  4  0  0  0  0
 47 49  4  0  0  0  0
 48 49  4  0  0  0  0
 49 50  4  0  0  0  0
 50 51  4  0  0  0  0
 51 52  4  0  0  0  0
 52 53  2  0  0  0  0
 53 54  4  0  0  0  0
 37 55  1  0  0  0  0
 51 55  4  0  0  0  0
 54 55  4  0  0  0  0
 54 56  4  0  0  0  0
 56 57  4  0  0  0  0
 57 58  4  0  0  0  0
 58 59  2  0  0  0  0
 38 60  4  0  0  0  0
 59 60  1  0  0  0  0
 37 61  1  0  0  0  0
 57 61  4  0  0  0  0
 60 61  4  0  0  0  0
 38 62  1  0  0  0  0
 40 63  1  0  0  0  0
 41 64  1  0  0  0  0
 44 65  1  0  0  0  0
 46 66  1  0  0  0  0
 47 67  1  0  0  0  0
 52 68  1  0  0  0  0
 53 69  1  0  0  0  0
 56 70  1  0  0  0  0
 58 71  1  0  0  0  0
 59 72  1  0  0  0  0
 14 73  4  0  0  0  0
 73 74  3  0  0  0  0
 74 75  4  0  0  0  0
 75 76  3  0  0  0  0
 76 77  4  0  0  0  0
 77 78  3  0  0  0  0
 78 79  4  0  0  0  0
 50 80  4  0  0  0  0
 79 80  3  0  0  0  0
M  END
