 xtb: 6.5.1 (b24c23e)
          07302206493D

130143  0     0  0            999 V2000
   14.4597   -0.1461    0.0680 C   0  0  0  0  0  0  0  0  0  0  0  0
   15.0698   -1.3800   -0.1168 C   0  0  0  0  0  0  0  0  0  0  0  0
   14.4197   -2.6362   -0.2745 C   0  0  0  0  0  0  0  0  0  0  0  0
   15.3825   -3.5895   -0.4509 C   0  0  0  0  0  0  0  0  0  0  0  0
   16.6521   -2.9448   -0.4143 C   0  0  0  0  0  0  0  0  0  0  0  0
   16.4129   -1.6173   -0.2005 N   0  0  0  0  0  0  0  0  0  0  0  0
   17.9154   -3.5331   -0.5424 C   0  0  0  0  0  0  0  0  0  0  0  0
   19.1322   -2.8529   -0.4486 C   0  0  0  0  0  0  0  0  0  0  0  0
   20.4285   -3.4791   -0.6382 C   0  0  0  0  0  0  0  0  0  0  0  0
   21.3499   -2.5080   -0.4710 C   0  0  0  0  0  0  0  0  0  0  0  0
   19.2875   -1.5248   -0.1934 N   0  0  0  0  0  0  0  0  0  0  0  0
   20.6152   -1.2893   -0.1921 C   0  0  0  0  0  0  0  0  0  0  0  0
   21.2527   -0.0544    0.0434 C   0  0  0  0  0  0  0  0  0  0  0  0
   20.6164    1.1815    0.2665 C   0  0  0  0  0  0  0  0  0  0  0  0
   21.2597    2.4236    0.5103 C   0  0  0  0  0  0  0  0  0  0  0  0
   20.2921    3.3801    0.6473 C   0  0  0  0  0  0  0  0  0  0  0  0
   19.0270    2.7504    0.4845 C   0  0  0  0  0  0  0  0  0  0  0  0
   17.7643    3.3490    0.5586 C   0  0  0  0  0  0  0  0  0  0  0  0
   17.7353    4.8171    0.7568 C   0  0  0  0  0  0  0  0  0  0  0  0
   18.3211    5.6662   -0.1865 C   0  0  0  0  0  0  0  0  0  0  0  0
   18.2903    7.0366   -0.0073 C   0  0  0  0  0  0  0  0  0  0  0  0
   17.6791    7.5849    1.1219 C   0  0  0  0  0  0  0  0  0  0  0  0
   17.6745    9.0597    1.2705 C   0  0  0  0  0  0  0  0  0  0  0  0
   17.0680    9.4853    2.3890 O   0  0  0  0  0  0  0  0  0  0  0  0
   18.1619    9.8246    0.4773 O   0  0  0  0  0  0  0  0  0  0  0  0
   17.0963    6.7418    2.0687 C   0  0  0  0  0  0  0  0  0  0  0  0
   17.1230    5.3705    1.8843 C   0  0  0  0  0  0  0  0  0  0  0  0
   16.5466    2.6685    0.4530 C   0  0  0  0  0  0  0  0  0  0  0  0
   15.2421    3.3120    0.4885 C   0  0  0  0  0  0  0  0  0  0  0  0
   14.3280    2.3298    0.3588 C   0  0  0  0  0  0  0  0  0  0  0  0
   15.0727    1.0896    0.2284 C   0  0  0  0  0  0  0  0  0  0  0  0
   16.4053    1.3328    0.2823 N   0  0  0  0  0  0  0  0  0  0  0  0
   19.2746    1.4211    0.2673 N   0  0  0  0  0  0  0  0  0  0  0  0
   17.9457   -4.9920   -0.8038 C   0  0  0  0  0  0  0  0  0  0  0  0
   17.3586   -5.5130   -1.9598 C   0  0  0  0  0  0  0  0  0  0  0  0
   17.3901   -6.8729   -2.2138 C   0  0  0  0  0  0  0  0  0  0  0  0
   18.0058   -7.7374   -1.3081 C   0  0  0  0  0  0  0  0  0  0  0  0
   18.0658   -9.2012   -1.5339 C   0  0  0  0  0  0  0  0  0  0  0  0
   17.4827   -9.5923   -2.6773 O   0  0  0  0  0  0  0  0  0  0  0  0
   18.5822   -9.9856   -0.7793 O   0  0  0  0  0  0  0  0  0  0  0  0
   18.5890   -7.2219   -0.1490 C   0  0  0  0  0  0  0  0  0  0  0  0
   18.5617   -5.8621    0.0997 C   0  0  0  0  0  0  0  0  0  0  0  0
   13.3745   -0.1571    0.0782 H   0  0  0  0  0  0  0  0  0  0  0  0
   13.3512   -2.7792   -0.2500 H   0  0  0  0  0  0  0  0  0  0  0  0
   15.2330   -4.6485   -0.5858 H   0  0  0  0  0  0  0  0  0  0  0  0
   17.1367   -0.9116   -0.1153 H   0  0  0  0  0  0  0  0  0  0  0  0
   20.5902   -4.5170   -0.8798 H   0  0  0  0  0  0  0  0  0  0  0  0
   22.4237   -2.5813   -0.5350 H   0  0  0  0  0  0  0  0  0  0  0  0
   22.3274    2.5579    0.5747 H   0  0  0  0  0  0  0  0  0  0  0  0
   20.4385    4.4276    0.8540 H   0  0  0  0  0  0  0  0  0  0  0  0
   18.7840    5.2437   -1.0711 H   0  0  0  0  0  0  0  0  0  0  0  0
   18.7369    7.7008   -0.7391 H   0  0  0  0  0  0  0  0  0  0  0  0
   17.1090   10.4552    2.4105 H   0  0  0  0  0  0  0  0  0  0  0  0
   16.6246    7.1628    2.9488 H   0  0  0  0  0  0  0  0  0  0  0  0
   16.6819    4.7154    2.6271 H   0  0  0  0  0  0  0  0  0  0  0  0
   15.0738    4.3724    0.5867 H   0  0  0  0  0  0  0  0  0  0  0  0
   13.2523    2.4067    0.3380 H   0  0  0  0  0  0  0  0  0  0  0  0
   18.5536    0.7205    0.1301 H   0  0  0  0  0  0  0  0  0  0  0  0
   16.8925   -4.8403   -2.6711 H   0  0  0  0  0  0  0  0  0  0  0  0
   16.9395   -7.2679   -3.1167 H   0  0  0  0  0  0  0  0  0  0  0  0
   17.5670  -10.5568   -2.7510 H   0  0  0  0  0  0  0  0  0  0  0  0
   19.0613   -7.9032    0.5502 H   0  0  0  0  0  0  0  0  0  0  0  0
   19.0049   -5.4652    1.0059 H   0  0  0  0  0  0  0  0  0  0  0  0
   34.6506    0.1009    0.1253 C   0  0  0  0  0  0  0  0  0  0  0  0
   34.0407    1.2863    0.5148 C   0  0  0  0  0  0  0  0  0  0  0  0
   34.6909    2.4793    0.9385 C   0  0  0  0  0  0  0  0  0  0  0  0
   33.7282    3.4105    1.2088 C   0  0  0  0  0  0  0  0  0  0  0  0
   32.4586    2.8185    0.9513 C   0  0  0  0  0  0  0  0  0  0  0  0
   32.6976    1.5362    0.5462 N   0  0  0  0  0  0  0  0  0  0  0  0
   31.1953    3.4021    1.0998 C   0  0  0  0  0  0  0  0  0  0  0  0
   29.9785    2.7523    0.8776 C   0  0  0  0  0  0  0  0  0  0  0  0
   28.6823    3.3973    0.9873 C   0  0  0  0  0  0  0  0  0  0  0  0
   27.7610    2.4542    0.7016 C   0  0  0  0  0  0  0  0  0  0  0  0
   29.8233    1.4505    0.5110 N   0  0  0  0  0  0  0  0  0  0  0  0
   28.4957    1.2394    0.4059 C   0  0  0  0  0  0  0  0  0  0  0  0
   27.8583    0.0297    0.0638 C   0  0  0  0  0  0  0  0  0  0  0  0
   28.4946   -1.1753   -0.2898 C   0  0  0  0  0  0  0  0  0  0  0  0
   27.8511   -2.3954   -0.6269 C   0  0  0  0  0  0  0  0  0  0  0  0
   28.8185   -3.3119   -0.9334 C   0  0  0  0  0  0  0  0  0  0  0  0
   30.0837   -2.6757   -0.7987 C   0  0  0  0  0  0  0  0  0  0  0  0
   31.3463   -3.2437   -1.0024 C   0  0  0  0  0  0  0  0  0  0  0  0
   31.3752   -4.6448   -1.4831 C   0  0  0  0  0  0  0  0  0  0  0  0
   30.7857   -4.9820   -2.7049 C   0  0  0  0  0  0  0  0  0  0  0  0
   30.8161   -6.2875   -3.1587 C   0  0  0  0  0  0  0  0  0  0  0  0
   31.4309   -7.2829   -2.3969 C   0  0  0  0  0  0  0  0  0  0  0  0
   31.4350   -8.6680   -2.9248 C   0  0  0  0  0  0  0  0  0  0  0  0
   32.0467   -9.5487   -2.1184 O   0  0  0  0  0  0  0  0  0  0  0  0
   30.9432   -8.9973   -3.9743 O   0  0  0  0  0  0  0  0  0  0  0  0
   32.0176   -6.9527   -1.1747 C   0  0  0  0  0  0  0  0  0  0  0  0
   31.9910   -5.6442   -0.7251 C   0  0  0  0  0  0  0  0  0  0  0  0
   32.5640   -2.5874   -0.7932 C   0  0  0  0  0  0  0  0  0  0  0  0
   33.8685   -3.1778   -1.0519 C   0  0  0  0  0  0  0  0  0  0  0  0
   34.7825   -2.2415   -0.7276 C   0  0  0  0  0  0  0  0  0  0  0  0
   34.0377   -1.0751   -0.2864 C   0  0  0  0  0  0  0  0  0  0  0  0
   32.7052   -1.3173   -0.3463 N   0  0  0  0  0  0  0  0  0  0  0  0
   29.8363   -1.3898   -0.3976 N   0  0  0  0  0  0  0  0  0  0  0  0
   31.1650    4.8233    1.5204 C   0  0  0  0  0  0  0  0  0  0  0  0
   31.7552    5.8069    0.7225 C   0  0  0  0  0  0  0  0  0  0  0  0
   31.7236    7.1364    1.1053 C   0  0  0  0  0  0  0  0  0  0  0  0
   31.1047    7.5033    2.3007 C   0  0  0  0  0  0  0  0  0  0  0  0
   31.0444    8.9130    2.7552 C   0  0  0  0  0  0  0  0  0  0  0  0
   31.6314    9.7749    1.9107 O   0  0  0  0  0  0  0  0  0  0  0  0
   30.5245    9.2762    3.7796 O   0  0  0  0  0  0  0  0  0  0  0  0
   30.5184    6.5232    3.1038 C   0  0  0  0  0  0  0  0  0  0  0  0
   30.5460    5.1962    2.7164 C   0  0  0  0  0  0  0  0  0  0  0  0
   35.7359    0.1062    0.1391 H   0  0  0  0  0  0  0  0  0  0  0  0
   35.7594    2.5957    1.0251 H   0  0  0  0  0  0  0  0  0  0  0  0
   33.8779    4.4171    1.5643 H   0  0  0  0  0  0  0  0  0  0  0  0
   31.9736    0.8677    0.3050 H   0  0  0  0  0  0  0  0  0  0  0  0
   28.5205    4.4336    1.2356 H   0  0  0  0  0  0  0  0  0  0  0  0
   26.6871    2.5484    0.6764 H   0  0  0  0  0  0  0  0  0  0  0  0
   26.7834   -2.5445   -0.6282 H   0  0  0  0  0  0  0  0  0  0  0  0
   28.6720   -4.3413   -1.2171 H   0  0  0  0  0  0  0  0  0  0  0  0
   30.3201   -4.2084   -3.3050 H   0  0  0  0  0  0  0  0  0  0  0  0
   30.3665   -6.5539   -4.1090 H   0  0  0  0  0  0  0  0  0  0  0  0
   32.0050  -10.4255   -2.5334 H   0  0  0  0  0  0  0  0  0  0  0  0
   32.4921   -7.7230   -0.5782 H   0  0  0  0  0  0  0  0  0  0  0  0
   32.4349   -5.3910    0.2310 H   0  0  0  0  0  0  0  0  0  0  0  0
   34.0369   -4.1691   -1.4407 H   0  0  0  0  0  0  0  0  0  0  0  0
   35.8582   -2.3004   -0.7818 H   0  0  0  0  0  0  0  0  0  0  0  0
   30.5575   -0.7018   -0.2074 H   0  0  0  0  0  0  0  0  0  0  0  0
   32.2236    5.5244   -0.2136 H   0  0  0  0  0  0  0  0  0  0  0  0
   32.1768    7.8939    0.4768 H   0  0  0  0  0  0  0  0  0  0  0  0
   31.5465   10.6700    2.2771 H   0  0  0  0  0  0  0  0  0  0  0  0
   30.0435    6.8190    4.0329 H   0  0  0  0  0  0  0  0  0  0  0  0
   30.1004    4.4355    3.3471 H   0  0  0  0  0  0  0  0  0  0  0  0
   23.8808   -0.0216    0.0571 C   0  0  0  0  0  0  0  0  0  0  0  0
   22.6588   -0.0388    0.0494 C   0  0  0  0  0  0  0  0  0  0  0  0
   25.2302   -0.0058    0.0614 C   0  0  0  0  0  0  0  0  0  0  0  0
   26.4522    0.0131    0.0619 C   0  0  0  0  0  0  0  0  0  0  0  0
  1  2  4  0  0  0  0
  2  3  4  0  0  0  0
  3  4  2  0  0  0  0
  4  5  4  0  0  0  0
  2  6  4  0  0  0  0
  5  6  4  0  0  0  0
  5  7  4  0  0  0  0
  7  8  4  0  0  0  0
  8  9  1  0  0  0  0
  9 10  2  0  0  0  0
  8 11  4  0  0  0  0
 10 12  1  0  0  0  0
 11 12  4  0  0  0  0
 12 13  4  0  0  0  0
 13 14  4  0  0  0  0
 14 15  4  0  0  0  0
 15 16  2  0  0  0  0
 16 17  4  0  0  0  0
 17 18  4  0  0  0  0
 18 19  1  0  0  0  0
 19 20  4  0  0  0  0
 20 21  4  0  0  0  0
 21 22  4  0  0  0  0
 22 23  1  0  0  0  0
 23 24  4  0  0  0  0
 23 25  2  0  0  0  0
 22 26  4  0  0  0  0
 19 27  4  0  0  0  0
 26 27  4  0  0  0  0
 18 28  4  0  0  0  0
 28 29  1  0  0  0  0
 29 30  2  0  0  0  0
  1 31  4  0  0  0  0
 30 31  1  0  0  0  0
 28 32  4  0  0  0  0
 31 32  4  0  0  0  0
 14 33  4  0  0  0  0
 17 33  4  0  0  0  0
  7 34  1  0  0  0  0
 34 35  4  0  0  0  0
 35 36  4  0  0  0  0
 36 37  4  0  0  0  0
 37 38  1  0  0  0  0
 38 39  4  0  0  0  0
 38 40  2  0  0  0  0
 37 41  4  0  0  0  0
 34 42  4  0  0  0  0
 41 42  4  0  0  0  0
  1 43  1  0  0  0  0
  3 44  1  0  0  0  0
  4 45  1  0  0  0  0
  6 46  1  0  0  0  0
  9 47  1  0  0  0  0
 10 48  1  0  0  0  0
 15 49  1  0  0  0  0
 16 50  1  0  0  0  0
 20 51  1  0  0  0  0
 21 52  1  0  0  0  0
 24 53  1  0  0  0  0
 26 54  1  0  0  0  0
 27 55  1  0  0  0  0
 29 56  1  0  0  0  0
 30 57  1  0  0  0  0
 33 58  1  0  0  0  0
 35 59  1  0  0  0  0
 36 60  1  0  0  0  0
 39 61  1  0  0  0  0
 41 62  1  0  0  0  0
 42 63  1  0  0  0  0
 64 65  4  0  0  0  0
 65 66  4  0  0  0  0
 66 67  2  0  0  0  0
 67 68  4  0  0  0  0
 65 69  4  0  0  0  0
 68 69  4  0  0  0  0
 68 70  4  0  0  0  0
 70 71  4  0  0  0  0
 71 72  1  0  0  0  0
 72 73  2  0  0  0  0
 71 74  4  0  0  0  0
 73 75  1  0  0  0  0
 74 75  4  0  0  0  0
 75 76  4  0  0  0  0
 76 77  4  0  0  0  0
 77 78  4  0  0  0  0
 78 79  2  0  0  0  0
 79 80  4  0  0  0  0
 80 81  4  0  0  0  0
 81 82  1  0  0  0  0
 82 83  4  0  0  0  0
 83 84  4  0  0  0  0
 84 85  4  0  0  0  0
 85 86  1  0  0  0  0
 86 87  4  0  0  0  0
 86 88  2  0  0  0  0
 85 89  4  0  0  0  0
 82 90  4  0  0  0  0
 89 90  4  0  0  0  0
 81 91  4  0  0  0  0
 91 92  1  0  0  0  0
 92 93  2  0  0  0  0
 64 94  4  0  0  0  0
 93 94  1  0  0  0  0
 91 95  4  0  0  0  0
 94 95  4  0  0  0  0
 77 96  4  0  0  0  0
 80 96  4  0  0  0  0
 70 97  1  0  0  0  0
 97 98  4  0  0  0  0
 98 99  4  0  0  0  0
 99100  4  0  0  0  0
100101  1  0  0  0  0
101102  4  0  0  0  0
101103  2  0  0  0  0
100104  4  0  0  0  0
 97105  4  0  0  0  0
104105  4  0  0  0  0
 64106  1  0  0  0  0
 66107  1  0  0  0  0
 67108  1  0  0  0  0
 69109  1  0  0  0  0
 72110  1  0  0  0  0
 73111  1  0  0  0  0
 78112  1  0  0  0  0
 79113  1  0  0  0  0
 83114  1  0  0  0  0
 84115  1  0  0  0  0
 87116  1  0  0  0  0
 89117  1  0  0  0  0
 90118  1  0  0  0  0
 92119  1  0  0  0  0
 93120  1  0  0  0  0
 96121  1  0  0  0  0
 98122  1  0  0  0  0
 99123  1  0  0  0  0
102124  1  0  0  0  0
104125  1  0  0  0  0
105126  1  0  0  0  0
 13128  4  0  0  0  0
127128  3  0  0  0  0
127129  4  0  0  0  0
 76130  4  0  0  0  0
129130  3  0  0  0  0
M  END
