286

Co 46.132408 1.975554 1.617026
C 42.381317 0.082070 -0.042614
C 43.030950 0.935271 0.754493
C 42.366243 1.853910 1.670834
C 43.296448 2.567069 2.278099
C 44.608679 2.146079 1.767984
N 44.446881 1.101903 0.807093
C 45.794092 2.676368 2.134563
C 45.827955 3.789852 3.110455
C 45.340153 5.056958 2.759785
C 45.388352 6.108811 3.678493
C 45.929409 5.914360 4.959274
N 45.965864 7.017681 5.883268
C 46.507276 6.920136 7.234790
C 46.424830 4.642080 5.304762
C 46.375228 3.590312 4.385378
C 47.093231 2.197849 1.592951
C 48.370033 2.891932 1.800767
C 49.314487 2.182196 1.217496
N 47.249389 1.108211 0.905444
C 48.647497 1.027677 0.628248
C 49.254278 0.016305 -0.013979
C 48.503659 -1.117171 -0.598471
C 49.045392 -2.284597 -0.921860
C 48.013326 -3.075890 -1.563279
C 46.910365 -2.336816 -1.593574
N 47.130033 -1.063811 -0.983894
C 45.639812 -2.752493 -2.241195
C 45.678364 -3.853520 -3.234407
C 46.424081 -3.710143 -4.413070
C 46.481113 -4.750943 -5.344419
C 45.795225 -5.957706 -5.107200
N 45.833966 -7.048054 -6.046384
C 46.570691 -7.002408 -7.305102
C 45.057655 -6.098810 -3.921228
C 45.001951 -5.058085 -2.990382
C 44.471048 -2.150222 -1.948818
C 43.170671 -2.446992 -2.547369
C 42.298373 -1.670737 -1.933804
C 43.033126 -0.870033 -0.955888
N 44.300007 -1.141051 -0.955780
H 41.297718 0.085048 -0.024145
H 41.300802 1.943355 1.839917
H 43.097084 3.326075 3.023181
H 44.924424 5.229005 1.774468
H 45.004569 7.079371 3.390204
H 45.586285 7.943424 5.580055
H 47.579590 6.635335 7.193015
H 45.937275 6.165966 7.817050
H 46.421304 7.901772 7.746862
H 46.851342 4.454185 6.280522
H 46.762326 2.618538 4.666885
H 48.529890 3.820835 2.332267
H 50.366661 2.433145 1.198190
H 50.072119 -2.587354 -0.765626
H 48.132644 -4.073456 -1.965790
H 46.959142 -2.789416 -4.611669
H 47.062466 -4.605922 -6.244600
H 45.308949 -7.924578 -5.824886
H 46.182319 -6.179303 -7.941007
H 46.444155 -7.961315 -7.850731
H 47.651959 -6.848911 -7.105099
H 44.526394 -7.019662 -3.715799
H 44.434872 -5.191503 -2.077198
H 42.940356 -3.152619 -3.334645
H 41.235146 -1.639004 -2.132493
Co 102.395509 -2.002906 -1.570134
C 106.146600 0.029901 -0.084407
C 105.496967 -0.934168 -0.743122
C 106.161674 -2.028875 -1.439681
C 105.231469 -2.777118 -2.003150
C 103.919238 -2.187435 -1.703611
N 104.081036 -1.021859 -0.894261
C 102.733825 -2.660891 -2.141135
C 102.699962 -3.856229 -3.014849
C 103.187764 -3.790490 -4.327939
C 103.139565 -4.916575 -5.153986
C 102.598508 -6.124066 -4.684755
N 102.562053 -7.266539 -5.559876
C 102.020641 -8.564211 -5.169780
C 102.103087 -6.183618 -3.367746
C 102.152689 -5.056892 -2.541930
C 101.434686 -2.027916 -1.792326
C 100.157883 -2.382173 -2.424339
C 99.213430 -1.658093 -1.858974
N 101.278527 -1.119217 -0.878957
C 99.880420 -0.831128 -0.860848
C 99.273638 0.016305 -0.013979
C 100.024258 0.834037 0.964649
C 99.482525 1.404366 2.033382
C 100.514591 2.202989 2.665651
C 101.617552 2.071288 1.937775
N 101.397884 1.198530 0.828476
C 102.888105 2.794005 2.202125
C 102.849553 4.003528 3.059904
C 102.103836 5.122505 2.662798
C 102.046804 6.258515 3.475300
C 102.732692 6.290326 4.704746
N 102.693951 7.444793 5.563892
C 101.957226 8.663221 5.244694
C 103.470262 5.163721 5.101229
C 103.525966 4.028218 4.288690
C 104.056869 2.377257 1.678163
C 105.357246 3.026141 1.837179
C 106.229544 2.257982 1.213508
C 105.494791 1.128916 0.645479
N 104.227910 1.187947 0.909989
H 107.230199 0.011226 -0.083284
H 107.227115 -2.213401 -1.490076
H 105.430833 -3.669862 -2.581291
H 103.603492 -2.866456 -4.710837
H 103.523348 -4.847009 -6.164064
H 102.941632 -7.172629 -6.529473
H 100.948327 -8.461299 -4.900957
H 102.590642 -8.967881 -4.306733
H 102.106613 -9.278136 -6.016028
H 101.676575 -7.094867 -2.971468
H 101.765591 -5.119575 -1.532147
H 99.998027 -3.103552 -3.214886
H 98.161256 -1.694009 -2.108089
H 98.455797 1.317957 2.362934
H 100.395273 2.813469 3.551352
H 101.568774 5.115417 1.720923
H 101.465451 7.105362 3.137354
H 103.218968 7.419890 6.467626
H 102.345597 9.104204 4.302668
H 102.083762 9.404936 6.061439
H 100.875958 8.434545 5.138536
H 104.001523 5.164171 6.044716
H 104.093045 3.166150 4.618150
H 105.587561 3.948414 2.354020
H 107.292771 2.444959 1.139186
C 51.638340 0.031506 -0.003345
C 53.096567 0.009669 -0.021219
C 54.230495 -0.011084 -0.022709
C 55.591877 -0.023674 -0.024901
C 56.866095 -0.013368 -0.029666
C 58.054558 0.005431 -0.035822
C 59.406919 0.030215 -0.019954
C 60.507186 0.031506 -0.003345
C 69.765360 0.031506 -0.003345
C 71.223586 0.009669 -0.021219
C 72.357514 -0.011084 -0.022709
C 73.718896 -0.023674 -0.024901
C 74.993115 -0.013368 -0.029666
C 76.181577 0.005431 -0.035822
C 77.533938 0.030215 -0.019954
C 78.634205 0.031506 -0.003345
C 87.892380 0.031506 -0.003345
C 89.350606 0.009669 -0.021219
C 90.484534 -0.011084 -0.022709
C 91.845916 -0.023674 -0.024901
C 93.120135 -0.013368 -0.029666
C 94.308597 0.005431 -0.035822
C 95.660958 0.030215 -0.019954
C 96.761225 0.031506 -0.003345
Co 65.524827 -2.026269 -1.592906
C 61.761174 -0.022372 0.014811
C 62.418137 -0.980952 -0.663599
C 61.776450 -2.086873 -1.378255
C 62.715419 -2.797323 -1.970680
C 64.014617 -2.189969 -1.667333
N 63.836273 -1.041482 -0.835347
C 65.198295 -2.632007 -2.138890
C 65.224702 -3.804079 -3.038567
C 65.309200 -5.097562 -2.507558
C 65.339105 -6.205364 -3.359020
C 65.287661 -6.037257 -4.752373
N 65.319506 -7.198070 -5.603423
C 65.269689 -7.130653 -7.060168
C 65.206106 -4.733362 -5.280231
C 65.174766 -3.626204 -4.427421
C 66.498720 -2.001462 -1.802304
C 67.773149 -2.374132 -2.428989
C 68.726214 -1.668377 -1.855316
N 66.664827 -1.105643 -0.879736
C 68.067232 -0.840420 -0.853255
C 68.682361 -0.022372 0.014811
C 67.933620 0.779992 1.005699
C 68.470840 1.321826 2.091417
C 67.437811 2.110567 2.733804
C 66.339880 1.999311 1.994871
N 66.562502 1.152381 0.868229
C 65.080415 2.739031 2.249301
C 65.138607 3.965326 3.081358
C 64.478812 4.019188 4.317933
C 64.549118 5.171574 5.106246
C 65.287079 6.289050 4.670396
N 65.376757 7.491629 5.456936
C 64.732429 7.655530 6.755877
C 65.953004 6.224729 3.436463
C 65.883541 5.071663 2.650076
C 63.905793 2.332611 1.730336
C 62.625785 3.019806 1.866728
C 61.737044 2.263242 1.256606
C 62.437823 1.090820 0.721183
N 63.706049 1.126929 0.991957
H 60.718759 -2.307191 -1.435567
H 62.530688 -3.675071 -2.576536
H 65.350899 -5.246971 -1.435301
H 65.402539 -7.198120 -2.930918
H 65.381668 -8.144756 -5.165114
H 64.326562 -6.642427 -7.384601
H 66.142309 -6.560086 -7.442396
H 65.302785 -8.155964 -7.485994
H 65.166621 -4.563072 -6.347481
H 65.113443 -2.629816 -4.848469
H 67.926656 -3.100204 -3.216241
H 69.779633 -1.723901 -2.094966
H 69.494594 1.222406 2.426298
H 67.554626 2.707471 3.628943
H 63.912737 3.166267 4.672210
H 64.027613 5.181073 6.053366
H 65.929297 8.297509 5.085734
H 65.121271 6.898619 7.468949
H 64.948746 8.667314 7.159531
H 63.633044 7.545440 6.648897
H 66.529153 7.070558 3.082426
H 66.406127 5.042649 1.701644
H 62.419732 3.962989 2.355277
H 60.683952 2.494098 1.171213
Co 83.651846 -2.026269 -1.592906
C 79.888194 -0.022372 0.014811
C 80.545157 -0.980952 -0.663599
C 79.903469 -2.086873 -1.378255
C 80.842438 -2.797323 -1.970680
C 82.141636 -2.189969 -1.667333
N 81.963293 -1.041482 -0.835347
C 83.325315 -2.632007 -2.138890
C 83.351722 -3.804079 -3.038567
C 83.436220 -5.097562 -2.507558
C 83.466125 -6.205364 -3.359020
C 83.414681 -6.037257 -4.752373
N 83.446525 -7.198070 -5.603423
C 83.396709 -7.130653 -7.060168
C 83.333126 -4.733362 -5.280231
C 83.301786 -3.626204 -4.427421
C 84.625740 -2.001462 -1.802304
C 85.900168 -2.374132 -2.428989
C 86.853233 -1.668377 -1.855316
N 84.791847 -1.105643 -0.879736
C 86.194251 -0.840420 -0.853255
C 86.809381 -0.022372 0.014811
C 86.060640 0.779992 1.005699
C 86.597860 1.321826 2.091417
C 85.564831 2.110567 2.733804
C 84.466899 1.999311 1.994871
N 84.689521 1.152381 0.868229
C 83.207435 2.739031 2.249301
C 83.265626 3.965326 3.081358
C 82.605832 4.019188 4.317933
C 82.676137 5.171574 5.106246
C 83.414099 6.289050 4.670396
N 83.503777 7.491629 5.456936
C 82.859449 7.655530 6.755877
C 84.080024 6.224729 3.436463
C 84.010561 5.071663 2.650076
C 82.032812 2.332611 1.730336
C 80.752805 3.019806 1.866728
C 79.864064 2.263242 1.256606
C 80.564843 1.090820 0.721183
N 81.833069 1.126929 0.991957
H 78.845778 -2.307191 -1.435567
H 80.657708 -3.675071 -2.576536
H 83.477918 -5.246971 -1.435301
H 83.529559 -7.198120 -2.930918
H 83.508687 -8.144756 -5.165114
H 82.453582 -6.642427 -7.384601
H 84.269329 -6.560086 -7.442396
H 83.429805 -8.155964 -7.485994
H 83.293641 -4.563072 -6.347481
H 83.240463 -2.629816 -4.848469
H 86.053676 -3.100204 -3.216241
H 87.906653 -1.723901 -2.094966
H 87.621613 1.222406 2.426298
H 85.681646 2.707471 3.628943
H 82.039757 3.166267 4.672210
H 82.154633 5.181073 6.053366
H 84.056317 8.297509 5.085734
H 83.248291 6.898619 7.468949
H 83.075766 8.667314 7.159531
H 81.760064 7.545440 6.648897
H 84.656173 7.070558 3.082426
H 84.533146 5.042649 1.701644
H 80.546752 3.962989 2.355277
H 78.810972 2.494098 1.171213
