156

C 11.928800 0.004437 0.011111
C 12.653988 -1.374334 0.054294
C 12.036344 -2.600230 0.147922
C 13.058268 -3.583133 0.119066
C 14.266649 -2.923339 0.008573
N 14.009604 -1.575798 0.000849
C 15.700370 -3.593422 -0.113153
C 15.752450 -5.079306 -0.260640
C 15.681808 -5.671562 -1.542797
C 15.571639 -4.825642 -2.784586
C 15.720178 -7.070764 -1.662106
C 15.834707 -7.889806 -0.533771
C 15.838858 -9.381228 -0.676179
C 15.888250 -7.299035 0.733110
C 15.853745 -5.903029 0.884785
C 15.923387 -5.306347 2.266379
C 16.826634 -2.828839 -0.110148
C 18.139543 -3.418270 -0.270905
C 19.041022 -2.444303 -0.255152
N 17.016210 -1.476423 0.015356
C 18.353317 -1.181222 -0.066688
C 19.024994 -0.000162 0.000045
C 18.252988 1.367779 0.249464
C 18.823394 2.558083 0.658716
C 17.795935 3.530074 0.717032
C 16.621299 2.906376 0.355211
N 16.902241 1.582595 0.105118
C 15.193876 3.598072 0.250514
C 15.136427 5.089210 0.244601
C 15.271601 5.799070 -0.970554
C 15.467785 5.072934 -2.275808
C 15.212129 7.202703 -0.963219
C 15.030689 7.912298 0.228495
C 14.926849 9.406972 0.216972
C 14.886732 7.204246 1.426431
C 14.947315 5.801077 1.452206
C 14.781420 5.078646 2.763588
C 14.074486 2.832851 0.158498
C 12.745152 3.408678 0.054225
C 11.863349 2.416062 -0.004457
C 12.594004 1.173751 0.052126
N 13.917827 1.474463 0.141234
H 10.847741 0.005268 -0.063677
H 10.973038 -2.768389 0.217729
H 12.927489 -4.653776 0.159918
H 14.715066 -0.842714 -0.034102
H 14.670272 -4.206143 -2.753110
H 15.503357 -5.447365 -3.684066
H 16.454894 -4.189799 -2.897250
H 15.661646 -7.521151 -2.649841
H 14.814249 -9.763858 -0.642506
H 16.297521 -9.682524 -1.623733
H 16.417800 -9.849736 0.126648
H 15.959564 -7.927962 1.616923
H 15.022176 -4.723921 2.481109
H 15.994065 -6.086217 3.032522
H 16.808251 -4.670934 2.369822
H 18.356029 -4.464727 -0.392016
H 20.100052 -2.594639 -0.356847
H 19.866639 2.720251 0.882682
H 17.901196 4.569842 0.989159
H 16.207633 0.873361 -0.117202
H 15.551627 5.775497 -3.112254
H 16.390126 4.484301 -2.256605
H 14.614932 4.420020 -2.486153
H 15.304974 7.742680 -1.902133
H 15.370074 9.834087 1.122073
H 13.876629 9.708645 0.161508
H 15.460295 9.833066 -0.638661
H 14.722846 7.746259 2.354370
H 14.763796 5.782170 3.603413
H 13.838199 4.524447 2.780562
H 15.616021 4.394000 2.941331
H 12.511595 4.458046 0.031107
H 10.796215 2.515566 -0.083123
C 34.855404 -0.004193 0.011330
C 34.130216 1.374990 -0.015623
C 34.747860 2.604061 0.015573
C 33.725936 3.584227 -0.063205
C 32.517555 2.919670 -0.140019
N 32.774600 1.573478 -0.079240
C 31.083833 3.582700 -0.295647
C 31.031754 5.059166 -0.518468
C 31.102395 5.585487 -1.829071
C 31.212564 4.677542 -3.026258
C 31.064026 6.976816 -2.019345
C 30.949496 7.852151 -0.934099
C 30.945345 9.334406 -1.152129
C 30.895953 7.326536 0.361172
C 30.930459 5.940045 0.583608
C 30.860816 5.414358 1.993744
C 29.957570 2.819258 -0.253783
C 28.644660 3.399756 -0.444291
C 27.743181 2.427848 -0.379054
N 29.767994 1.474969 -0.059700
C 28.430886 1.175979 -0.126633
C 27.759210 -0.000162 0.000045
C 28.531216 -1.353658 0.318672
C 27.960810 -2.521622 0.787896
C 28.988268 -3.489392 0.895542
C 30.162905 -2.884891 0.502487
N 29.881963 -1.575533 0.185431
C 31.590328 -3.581014 0.433083
C 31.647776 -5.070526 0.502969
C 31.512603 -5.841233 -0.674533
C 31.316419 -5.182379 -2.015009
C 31.572074 -7.242678 -0.595864
C 31.753514 -7.890783 0.630378
C 31.857354 -9.384111 0.694841
C 31.897471 -7.122758 1.790776
C 31.836889 -5.720091 1.745196
C 32.002784 -4.931939 3.018164
C 32.709718 -2.821459 0.302291
C 34.039051 -3.401843 0.227421
C 34.920854 -2.413492 0.118362
C 34.190199 -1.169911 0.111726
N 32.866377 -1.465705 0.216004
H 35.936462 -0.008825 -0.063319
H 35.811165 2.775551 0.076743
H 33.856714 4.655562 -0.076824
H 32.069137 0.839565 -0.076883
H 32.113932 4.060443 -2.963334
H 31.280846 5.252742 -3.956176
H 30.329310 4.036794 -3.106458
H 31.122558 7.376416 -3.028696
H 31.969954 9.718253 -1.137949
H 30.486683 9.587150 -2.113774
H 30.366404 9.843115 -0.374154
H 30.824639 7.999573 1.211876
H 31.762027 4.843599 2.237801
H 30.790139 6.232162 2.719258
H 29.975953 4.785024 2.129351
H 28.428174 4.438704 -0.618436
H 26.684152 2.572820 -0.488259
H 26.917565 -2.672196 1.019816
H 28.883007 -4.513984 1.220166
H 30.576570 -0.878516 -0.072650
H 31.232576 -5.926550 -2.814664
H 30.394077 -4.593531 -2.025749
H 32.169271 -4.541000 -2.258268
H 31.479229 -7.829681 -1.506118
H 31.414129 -9.764669 1.620482
H 32.907575 -9.688213 0.654783
H 31.323909 -9.853144 -0.138028
H 32.061358 -7.616904 2.745065
H 32.020408 -5.591867 3.892663
H 32.946004 -4.377593 3.006946
H 31.168182 -4.239144 3.160877
H 34.272609 -4.451029 0.257670
H 35.987989 -2.516866 0.044855
C 23.996060 0.001253 0.008448
C 22.787120 -0.012202 0.000001
C 21.365591 -0.003383 -0.011982
C 20.153922 0.004056 -0.001119
C 25.412664 -0.005422 0.008982
C 26.633360 0.004056 -0.001119
