392

C 70.294297 -0.041788 -0.172535
C 71.026611 -1.406883 0.005293
C 70.426530 -2.645002 0.029062
C 71.449918 -3.597851 0.271510
C 72.639580 -2.906763 0.396243
N 72.376573 -1.577897 0.177039
C 74.056714 -3.518185 0.753799
C 74.089516 -4.904991 1.269635
C 74.390905 -5.969441 0.408983
C 74.415865 -7.279586 0.889820
C 74.134516 -7.519029 2.242036
N 74.158208 -8.893829 2.753412
O 74.427658 -9.807385 1.957785
O 73.905486 -9.073944 3.954964
C 73.830130 -6.462879 3.111885
C 73.808647 -5.157024 2.619111
C 75.187577 -2.772181 0.636172
C 76.487016 -3.284451 1.021234
C 77.389904 -2.331874 0.819882
N 75.387430 -1.490691 0.197195
C 76.716134 -1.165575 0.284682
C 77.384525 -0.023763 -0.028482
C 76.608895 1.219293 -0.635707
C 77.148980 2.207890 -1.434484
C 76.123043 3.148397 -1.702375
C 74.983843 2.702456 -1.066870
N 75.274845 1.499643 -0.468351
C 73.575727 3.429011 -1.045940
C 73.550000 4.892058 -1.254532
C 73.188472 5.423019 -2.500511
C 73.173227 6.804190 -2.701670
C 73.526235 7.654525 -1.644802
N 73.512023 9.107101 -1.849400
O 73.197476 9.534851 -2.971221
O 73.816087 9.834543 -0.891044
C 73.892918 7.135609 -0.395521
C 73.903794 5.752387 -0.207005
C 72.447232 2.709914 -0.815419
C 71.124848 3.309008 -0.770208
C 70.237632 2.345548 -0.540335
C 70.958987 1.102819 -0.417593
N 72.281033 1.373873 -0.582602
H 69.215618 -0.026860 -0.071855
H 69.372360 -2.838635 -0.097031
H 71.325610 -4.665510 0.369160
H 73.072589 -0.836854 0.148134
H 74.609973 -5.757308 -0.636380
H 74.655565 -8.086159 0.202650
H 73.610663 -6.630471 4.162610
H 73.577144 -4.319913 3.275970
H 76.697939 -4.261968 1.415789
H 78.440479 -2.432274 1.023074
H 78.171060 2.256234 -1.778496
H 76.208782 4.050544 -2.288678
H 74.592149 0.890253 -0.025468
H 72.915219 4.741860 -3.305068
H 72.885442 7.189446 -3.675791
H 74.169742 7.779971 0.434221
H 74.184362 5.326743 0.755226
H 70.893924 4.350817 -0.898141
H 69.173128 2.465426 -0.450458
C 160.044485 -0.082237 -0.161362
C 159.312170 1.180576 -0.709459
C 159.912252 2.255338 -1.324593
C 158.888864 3.197528 -1.605626
C 157.699201 2.668458 -1.143840
N 157.962208 1.415500 -0.649848
C 156.282067 3.376720 -1.150830
C 156.249266 4.831667 -1.419991
C 155.947877 5.303407 -2.704995
C 155.922917 6.674597 -2.964842
C 156.204266 7.574189 -1.927271
N 156.180574 9.016542 -2.194097
O 155.911124 9.392162 -3.345842
O 156.433296 9.787881 -1.255371
C 156.508652 7.114293 -0.638633
C 156.530135 5.740656 -0.391233
C 155.151205 2.676117 -0.868850
C 153.851766 3.313404 -0.801339
C 152.948878 2.392542 -0.485177
N 154.951351 1.351005 -0.587786
C 153.622648 1.116896 -0.345821
C 152.954257 -0.023763 -0.028482
C 153.729887 -1.402253 0.088461
C 153.189802 -2.660689 -0.089601
C 154.215739 -3.605348 0.163259
C 155.354939 -2.896431 0.479750
N 155.063937 -1.556946 0.375993
C 156.763055 -3.509221 0.870657
C 156.788781 -4.871888 1.442632
C 157.150310 -5.967130 0.645871
C 157.165555 -7.255715 1.182197
C 156.812547 -7.442982 2.525689
N 156.826759 -8.794613 3.095717
O 157.141305 -9.737547 2.352530
O 156.522695 -8.926977 4.291584
C 156.445864 -6.356382 3.331467
C 156.434988 -5.072526 2.783237
C 157.891550 -2.773760 0.699375
C 159.213934 -3.264698 1.045694
C 160.101150 -2.319856 0.748423
C 159.379795 -1.190335 0.215861
N 158.057749 -1.507656 0.213383
H 161.123163 -0.043368 -0.067295
H 160.966421 2.356791 -1.532201
H 159.013172 4.163925 -2.069857
H 157.266193 0.764694 -0.294273
H 155.728809 4.584763 -3.493244
H 155.683217 7.014075 -3.968595
H 156.728119 7.797464 0.177079
H 156.761638 5.359413 0.602182
H 153.640843 4.354842 -0.964494
H 151.898303 2.583005 -0.362332
H 152.167722 -2.878762 -0.360019
H 154.130000 -4.680528 0.123168
H 155.746633 -0.806629 0.443274
H 157.423562 -5.795539 -0.394248
H 157.453340 -8.086366 0.543954
H 156.169039 -6.483466 4.374311
H 156.154419 -4.213317 3.390545
H 159.444858 -4.224455 1.470667
H 161.165653 -2.376603 0.887090
C 83.647539 -0.022660 -0.019992
C 82.438599 -0.036115 -0.028439
C 81.017070 -0.027296 -0.040422
C 79.805401 -0.019857 -0.029559
C 85.064143 -0.029335 -0.019459
C 86.284839 -0.019857 -0.029559
C 99.710387 -0.022660 -0.019992
C 98.501447 -0.036115 -0.028439
C 97.079918 -0.027296 -0.040422
C 95.868249 -0.019857 -0.029559
C 101.126991 -0.029335 -0.019459
C 102.347687 -0.019857 -0.029559
C 115.773235 -0.022660 -0.019992
C 114.564295 -0.036115 -0.028439
C 113.142767 -0.027296 -0.040422
C 111.931097 -0.019857 -0.029559
C 117.189839 -0.029335 -0.019459
C 118.410535 -0.019857 -0.029559
C 131.836083 -0.022660 -0.019992
C 130.627144 -0.036115 -0.028439
C 129.205615 -0.027296 -0.040422
C 127.993945 -0.019857 -0.029559
C 133.252687 -0.029335 -0.019459
C 134.473383 -0.019857 -0.029559
C 147.898931 -0.022660 -0.019992
C 146.689992 -0.036115 -0.028439
C 145.268463 -0.027296 -0.040422
C 144.056793 -0.019857 -0.029559
C 149.315535 -0.029335 -0.019459
C 150.536231 -0.019857 -0.029559
C 87.495459 0.014562 0.018173
C 88.291162 1.250250 -0.572263
C 87.791395 2.512849 -0.817675
C 88.830364 3.269624 -1.417882
C 89.932795 2.446575 -1.514753
N 89.617468 1.247210 -0.927469
C 91.319091 2.806039 -2.186855
C 91.306556 3.794759 -3.287178
C 91.744117 5.107848 -3.063851
C 91.721779 6.045126 -4.098023
C 91.253626 5.660188 -5.361865
N 91.227132 6.640486 -6.452932
O 90.822278 6.265790 -7.564545
O 91.610131 7.795403 -6.208316
C 90.809701 4.351737 -5.596671
C 90.837510 3.423529 -4.554180
C 92.455921 2.179426 -1.786629
C 93.741219 2.430635 -2.405851
C 94.650592 1.669822 -1.806204
N 92.666130 1.239895 -0.816767
C 93.990349 0.894741 -0.775521
C 94.654766 0.014562 0.018173
C 93.859011 -0.803100 1.116723
C 94.358513 -1.286791 2.308655
C 93.319563 -2.021843 2.935333
C 92.217406 -1.958809 2.108632
N 92.532876 -1.151567 1.044856
C 90.831195 -2.687760 2.331522
C 90.843776 -3.958238 3.089211
C 91.311767 -5.129965 2.479999
C 91.339564 -6.332043 3.189472
C 90.896731 -6.354017 4.519010
N 90.923265 -7.613799 5.270240
O 90.541904 -7.596408 6.451182
O 91.326517 -8.632496 4.687475
C 90.429639 -5.188033 5.141056
C 90.407236 -3.992381 4.421049
C 89.694354 -2.174132 1.793959
C 88.409053 -2.830156 1.921040
C 87.499663 -2.094951 1.290278
C 88.159904 -0.934088 0.728602
N 89.484135 -1.041204 1.059238
H 86.786534 2.847595 -0.608807
H 88.773145 4.292388 -1.758224
H 90.274138 0.494434 -0.742716
H 92.105819 5.382712 -2.074131
H 92.070296 7.054667 -3.899018
H 90.442738 4.036659 -6.569525
H 90.496988 2.401626 -4.714154
H 93.937533 3.107064 -3.217976
H 95.694822 1.644321 -2.059549
H 95.363178 -1.145853 2.677730
H 93.376608 -2.552638 3.873500
H 91.876316 -0.825496 0.341564
H 91.651446 -5.089826 1.446153
H 91.705687 -7.225954 2.692221
H 90.081995 -5.187495 6.170315
H 90.046305 -3.074173 4.882086
H 88.212740 -3.757497 2.428122
H 86.455418 -2.338574 1.216463
C 103.558307 0.014562 0.018173
C 104.354010 1.250250 -0.572263
C 103.854243 2.512849 -0.817675
C 104.893212 3.269624 -1.417882
C 105.995643 2.446575 -1.514753
N 105.680316 1.247210 -0.927469
C 107.381939 2.806039 -2.186855
C 107.369404 3.794759 -3.287178
C 107.806966 5.107848 -3.063851
C 107.784627 6.045126 -4.098023
C 107.316475 5.660188 -5.361865
N 107.289980 6.640486 -6.452932
O 106.885126 6.265790 -7.564545
O 107.672980 7.795403 -6.208316
C 106.872549 4.351737 -5.596671
C 106.900358 3.423529 -4.554180
C 108.518769 2.179426 -1.786629
C 109.804068 2.430635 -2.405851
C 110.713440 1.669822 -1.806204
N 108.728978 1.239895 -0.816767
C 110.053197 0.894741 -0.775521
C 110.717614 0.014562 0.018173
C 109.921859 -0.803100 1.116723
C 110.421361 -1.286791 2.308655
C 109.382411 -2.021843 2.935333
C 108.280255 -1.958809 2.108632
N 108.595724 -1.151567 1.044856
C 106.894043 -2.687760 2.331522
C 106.906624 -3.958238 3.089211
C 107.374615 -5.129965 2.479999
C 107.402412 -6.332043 3.189472
C 106.959580 -6.354017 4.519010
N 106.986113 -7.613799 5.270240
O 106.604752 -7.596408 6.451182
O 107.389365 -8.632496 4.687475
C 106.492487 -5.188033 5.141056
C 106.470084 -3.992381 4.421049
C 105.757202 -2.174132 1.793959
C 104.471901 -2.830156 1.921040
C 103.562512 -2.094951 1.290278
C 104.222752 -0.934088 0.728602
N 105.546983 -1.041204 1.059238
H 102.849382 2.847595 -0.608807
H 104.835993 4.292388 -1.758224
H 106.336986 0.494434 -0.742716
H 108.168667 5.382712 -2.074131
H 108.133144 7.054667 -3.899018
H 106.505586 4.036659 -6.569525
H 106.559836 2.401626 -4.714154
H 110.000381 3.107064 -3.217976
H 111.757670 1.644321 -2.059549
H 111.426026 -1.145853 2.677730
H 109.439456 -2.552638 3.873500
H 107.939164 -0.825496 0.341564
H 107.714294 -5.089826 1.446153
H 107.768535 -7.225954 2.692221
H 106.144843 -5.187495 6.170315
H 106.109153 -3.074173 4.882086
H 104.275588 -3.757497 2.428122
H 102.518266 -2.338574 1.216463
C 119.621155 0.014562 0.018173
C 120.416858 1.250250 -0.572263
C 119.917091 2.512849 -0.817675
C 120.956060 3.269624 -1.417882
C 122.058491 2.446575 -1.514753
N 121.743164 1.247210 -0.927469
C 123.444787 2.806039 -2.186855
C 123.432252 3.794759 -3.287178
C 123.869814 5.107848 -3.063851
C 123.847475 6.045126 -4.098023
C 123.379323 5.660188 -5.361865
N 123.352828 6.640486 -6.452932
O 122.947974 6.265790 -7.564545
O 123.735828 7.795403 -6.208316
C 122.935398 4.351737 -5.596671
C 122.963206 3.423529 -4.554180
C 124.581618 2.179426 -1.786629
C 125.866916 2.430635 -2.405851
C 126.776288 1.669822 -1.806204
N 124.791826 1.239895 -0.816767
C 126.116045 0.894741 -0.775521
C 126.780462 0.014562 0.018173
C 125.984707 -0.803100 1.116723
C 126.484209 -1.286791 2.308655
C 125.445260 -2.021843 2.935333
C 124.343103 -1.958809 2.108632
N 124.658572 -1.151567 1.044856
C 122.956892 -2.687760 2.331522
C 122.969472 -3.958238 3.089211
C 123.437464 -5.129965 2.479999
C 123.465260 -6.332043 3.189472
C 123.022428 -6.354017 4.519010
N 123.048961 -7.613799 5.270240
O 122.667600 -7.596408 6.451182
O 123.452213 -8.632496 4.687475
C 122.555335 -5.188033 5.141056
C 122.532932 -3.992381 4.421049
C 121.820050 -2.174132 1.793959
C 120.534750 -2.830156 1.921040
C 119.625360 -2.094951 1.290278
C 120.285600 -0.934088 0.728602
N 121.609831 -1.041204 1.059238
H 118.912230 2.847595 -0.608807
H 120.898841 4.292388 -1.758224
H 122.399834 0.494434 -0.742716
H 124.231515 5.382712 -2.074131
H 124.195992 7.054667 -3.899018
H 122.568434 4.036659 -6.569525
H 122.622684 2.401626 -4.714154
H 126.063229 3.107064 -3.217976
H 127.820519 1.644321 -2.059549
H 127.488874 -1.145853 2.677730
H 125.502304 -2.552638 3.873500
H 124.002012 -0.825496 0.341564
H 123.777142 -5.089826 1.446153
H 123.831383 -7.225954 2.692221
H 122.207691 -5.187495 6.170315
H 122.172002 -3.074173 4.882086
H 120.338436 -3.757497 2.428122
H 118.581114 -2.338574 1.216463
C 135.684004 0.014562 0.018173
C 136.479707 1.250250 -0.572263
C 135.979939 2.512849 -0.817675
C 137.018908 3.269624 -1.417882
C 138.121340 2.446575 -1.514753
N 137.806012 1.247210 -0.927469
C 139.507636 2.806039 -2.186855
C 139.495100 3.794759 -3.287178
C 139.932662 5.107848 -3.063851
C 139.910323 6.045126 -4.098023
C 139.442171 5.660188 -5.361865
N 139.415676 6.640486 -6.452932
O 139.010822 6.265790 -7.564545
O 139.798676 7.795403 -6.208316
C 138.998246 4.351737 -5.596671
C 139.026055 3.423529 -4.554180
C 140.644466 2.179426 -1.786629
C 141.929764 2.430635 -2.405851
C 142.839136 1.669822 -1.806204
N 140.854675 1.239895 -0.816767
C 142.178893 0.894741 -0.775521
C 142.843310 0.014562 0.018173
C 142.047555 -0.803100 1.116723
C 142.547057 -1.286791 2.308655
C 141.508108 -2.021843 2.935333
C 140.405951 -1.958809 2.108632
N 140.721421 -1.151567 1.044856
C 139.019740 -2.687760 2.331522
C 139.032320 -3.958238 3.089211
C 139.500312 -5.129965 2.479999
C 139.528108 -6.332043 3.189472
C 139.085276 -6.354017 4.519010
N 139.111809 -7.613799 5.270240
O 138.730448 -7.596408 6.451182
O 139.515061 -8.632496 4.687475
C 138.618183 -5.188033 5.141056
C 138.595781 -3.992381 4.421049
C 137.882898 -2.174132 1.793959
C 136.597598 -2.830156 1.921040
C 135.688208 -2.094951 1.290278
C 136.348448 -0.934088 0.728602
N 137.672679 -1.041204 1.059238
H 134.975078 2.847595 -0.608807
H 136.961689 4.292388 -1.758224
H 138.462682 0.494434 -0.742716
H 140.294363 5.382712 -2.074131
H 140.258840 7.054667 -3.899018
H 138.631282 4.036659 -6.569525
H 138.685532 2.401626 -4.714154
H 142.126077 3.107064 -3.217976
H 143.883367 1.644321 -2.059549
H 143.551722 -1.145853 2.677730
H 141.565152 -2.552638 3.873500
H 140.064860 -0.825496 0.341564
H 139.839990 -5.089826 1.446153
H 139.894231 -7.225954 2.692221
H 138.270539 -5.187495 6.170315
H 138.234850 -3.074173 4.882086
H 136.401284 -3.757497 2.428122
H 134.643962 -2.338574 1.216463
