 xtb: 6.5.1 (b24c23e)
          07302209463D

392445  0     0  0            999 V2000
   71.7220   -0.0910   -0.0843 C   0  0  0  0  0  0  0  0  0  0  0  0
   72.3307   -1.3013    0.2205 C   0  0  0  0  0  0  0  0  0  0  0  0
   71.6796   -2.5409    0.4758 C   0  0  0  0  0  0  0  0  0  0  0  0
   72.6402   -3.4717    0.7529 C   0  0  0  0  0  0  0  0  0  0  0  0
   73.9093   -2.8277    0.6854 C   0  0  0  0  0  0  0  0  0  0  0  0
   73.6725   -1.5257    0.3501 N   0  0  0  0  0  0  0  0  0  0  0  0
   75.1724   -3.3960    0.8897 C   0  0  0  0  0  0  0  0  0  0  0  0
   75.2011   -4.8258    1.2757 C   0  0  0  0  0  0  0  0  0  0  0  0
   75.8552   -5.7621    0.4689 C   0  0  0  0  0  0  0  0  0  0  0  0
   75.8783   -7.0993    0.8204 C   0  0  0  0  0  0  0  0  0  0  0  0
   75.2451   -7.5045    1.9920 C   0  0  0  0  0  0  0  0  0  0  0  0
   75.2647   -8.9077    2.3653 N   0  0  0  0  0  0  0  0  0  0  0  0
   75.8574   -9.6684    1.6439 O   0  0  0  0  0  0  0  0  0  0  0  0
   74.6858   -9.2247    3.3727 O   0  0  0  0  0  0  0  0  0  0  0  0
   74.5915   -6.5883    2.8112 C   0  0  0  0  0  0  0  0  0  0  0  0
   74.5704   -5.2541    2.4481 C   0  0  0  0  0  0  0  0  0  0  0  0
   76.3895   -2.7218    0.7568 C   0  0  0  0  0  0  0  0  0  0  0  0
   77.6836   -3.3191    1.0358 C   0  0  0  0  0  0  0  0  0  0  0  0
   78.6052   -2.3660    0.7876 C   0  0  0  0  0  0  0  0  0  0  0  0
   76.5456   -1.4256    0.3731 N   0  0  0  0  0  0  0  0  0  0  0  0
   77.8727   -1.1862    0.3696 C   0  0  0  0  0  0  0  0  0  0  0  0
   78.5118    0.0167    0.0065 C   0  0  0  0  0  0  0  0  0  0  0  0
   77.8772    1.2201   -0.3558 C   0  0  0  0  0  0  0  0  0  0  0  0
   78.5229    2.4270   -0.7337 C   0  0  0  0  0  0  0  0  0  0  0  0
   77.5571    3.3626   -0.9812 C   0  0  0  0  0  0  0  0  0  0  0  0
   76.2906    2.7557   -0.7541 C   0  0  0  0  0  0  0  0  0  0  0  0
   76.5357    1.4592   -0.3884 N   0  0  0  0  0  0  0  0  0  0  0  0
   75.0274    3.3398   -0.9037 C   0  0  0  0  0  0  0  0  0  0  0  0
   74.9953    4.7731   -1.2736 C   0  0  0  0  0  0  0  0  0  0  0  0
   74.3713    5.1842   -2.4558 C   0  0  0  0  0  0  0  0  0  0  0  0
   74.3368    6.5218   -2.8047 C   0  0  0  0  0  0  0  0  0  0  0  0
   74.9270    7.4591   -1.9614 C   0  0  0  0  0  0  0  0  0  0  0  0
   74.8907    8.8654   -2.3208 N   0  0  0  0  0  0  0  0  0  0  0  0
   74.3380    9.1644   -3.3482 O   0  0  0  0  0  0  0  0  0  0  0  0
   75.4162    9.6466   -1.5696 O   0  0  0  0  0  0  0  0  0  0  0  0
   75.5518    7.0715   -0.7794 C   0  0  0  0  0  0  0  0  0  0  0  0
   75.5860    5.7307   -0.4428 C   0  0  0  0  0  0  0  0  0  0  0  0
   73.8086    2.6738   -0.7312 C   0  0  0  0  0  0  0  0  0  0  0  0
   72.5037    3.3092   -0.8391 C   0  0  0  0  0  0  0  0  0  0  0  0
   71.5899    2.3446   -0.6137 C   0  0  0  0  0  0  0  0  0  0  0  0
   72.3350    1.1249   -0.3540 C   0  0  0  0  0  0  0  0  0  0  0  0
   73.6681    1.3638   -0.4225 N   0  0  0  0  0  0  0  0  0  0  0  0
   70.6371   -0.1057   -0.1078 H   0  0  0  0  0  0  0  0  0  0  0  0
   70.6122   -2.6892    0.4425 H   0  0  0  0  0  0  0  0  0  0  0  0
   72.4891   -4.5156    0.9748 H   0  0  0  0  0  0  0  0  0  0  0  0
   74.3970   -0.8285    0.2152 H   0  0  0  0  0  0  0  0  0  0  0  0
   76.3322   -5.4362   -0.4480 H   0  0  0  0  0  0  0  0  0  0  0  0
   76.3766   -7.8329    0.1982 H   0  0  0  0  0  0  0  0  0  0  0  0
   74.1111   -6.9282    3.7208 H   0  0  0  0  0  0  0  0  0  0  0  0
   74.0771   -4.5293    3.0853 H   0  0  0  0  0  0  0  0  0  0  0  0
   77.8434   -4.3252    1.3880 H   0  0  0  0  0  0  0  0  0  0  0  0
   79.6776   -2.4270    0.8801 H   0  0  0  0  0  0  0  0  0  0  0  0
   79.5909    2.5526   -0.8084 H   0  0  0  0  0  0  0  0  0  0  0  0
   77.7061    4.3799   -1.3044 H   0  0  0  0  0  0  0  0  0  0  0  0
   75.8127    0.7782   -0.1801 H   0  0  0  0  0  0  0  0  0  0  0  0
   73.9271    4.4437   -3.1106 H   0  0  0  0  0  0  0  0  0  0  0  0
   73.8612    6.8487   -3.7215 H   0  0  0  0  0  0  0  0  0  0  0  0
   75.9993    7.8209   -0.1377 H   0  0  0  0  0  0  0  0  0  0  0  0
   76.0563    5.4186    0.4824 H   0  0  0  0  0  0  0  0  0  0  0  0
   72.3345    4.3538   -1.0447 H   0  0  0  0  0  0  0  0  0  0  0  0
   70.5142    2.4216   -0.6064 H   0  0  0  0  0  0  0  0  0  0  0  0
  158.6170    0.0278   -0.0890 C   0  0  0  0  0  0  0  0  0  0  0  0
  158.0082    1.2188   -0.4625 C   0  0  0  0  0  0  0  0  0  0  0  0
  158.6600    2.4116   -0.8844 C   0  0  0  0  0  0  0  0  0  0  0  0
  157.6990    3.3475   -1.1427 C   0  0  0  0  0  0  0  0  0  0  0  0
  156.4291    2.7587   -0.8775 C   0  0  0  0  0  0  0  0  0  0  0  0
  156.6659    1.4739   -0.4814 N   0  0  0  0  0  0  0  0  0  0  0  0
  155.1654    3.3453   -1.0160 C   0  0  0  0  0  0  0  0  0  0  0  0
  155.1371    4.7659   -1.4350 C   0  0  0  0  0  0  0  0  0  0  0  0
  154.4995    5.1408   -2.6217 C   0  0  0  0  0  0  0  0  0  0  0  0
  154.4763    6.4650   -3.0195 C   0  0  0  0  0  0  0  0  0  0  0  0
  155.0925    7.4248   -2.2215 C   0  0  0  0  0  0  0  0  0  0  0  0
  155.0717    8.8168   -2.6344 N   0  0  0  0  0  0  0  0  0  0  0  0
  154.4951    9.0868   -3.6566 O   0  0  0  0  0  0  0  0  0  0  0  0
  155.6336    9.6157   -1.9297 O   0  0  0  0  0  0  0  0  0  0  0  0
  155.7298    7.0734   -1.0349 C   0  0  0  0  0  0  0  0  0  0  0  0
  155.7514    5.7457   -0.6487 C   0  0  0  0  0  0  0  0  0  0  0  0
  153.9479    2.6975   -0.7895 C   0  0  0  0  0  0  0  0  0  0  0  0
  152.6522    3.3469   -0.8843 C   0  0  0  0  0  0  0  0  0  0  0  0
  151.7311    2.4041   -0.5981 C   0  0  0  0  0  0  0  0  0  0  0  0
  153.7927    1.3944   -0.4294 N   0  0  0  0  0  0  0  0  0  0  0  0
  152.4653    1.1853   -0.3170 C   0  0  0  0  0  0  0  0  0  0  0  0
  151.8271   -0.0254    0.0205 C   0  0  0  0  0  0  0  0  0  0  0  0
  152.4620   -1.2358    0.3580 C   0  0  0  0  0  0  0  0  0  0  0  0
  151.8161   -2.4597    0.6765 C   0  0  0  0  0  0  0  0  0  0  0  0
  152.7819   -3.3869    0.9535 C   0  0  0  0  0  0  0  0  0  0  0  0
  154.0487   -2.7532    0.8207 C   0  0  0  0  0  0  0  0  0  0  0  0
  153.8036   -1.4577    0.4513 N   0  0  0  0  0  0  0  0  0  0  0  0
  155.3121   -3.3307    0.9919 C   0  0  0  0  0  0  0  0  0  0  0  0
  155.3454   -4.7483    1.4179 C   0  0  0  0  0  0  0  0  0  0  0  0
  155.9647   -5.7115    0.6149 C   0  0  0  0  0  0  0  0  0  0  0  0
  155.9989   -7.0373    1.0060 C   0  0  0  0  0  0  0  0  0  0  0  0
  155.4132   -7.4041    2.2145 C   0  0  0  0  0  0  0  0  0  0  0  0
  155.4479   -8.7945    2.6312 N   0  0  0  0  0  0  0  0  0  0  0  0
  155.9948   -9.5818    1.9021 O   0  0  0  0  0  0  0  0  0  0  0  0
  154.9271   -9.0754    3.6803 O   0  0  0  0  0  0  0  0  0  0  0  0
  154.7940   -6.4610    3.0300 C   0  0  0  0  0  0  0  0  0  0  0  0
  154.7602   -5.1387    2.6267 C   0  0  0  0  0  0  0  0  0  0  0  0
  156.5307   -2.6726    0.7894 C   0  0  0  0  0  0  0  0  0  0  0  0
  157.8357   -3.2714    1.0273 C   0  0  0  0  0  0  0  0  0  0  0  0
  158.7492   -2.3291    0.7211 C   0  0  0  0  0  0  0  0  0  0  0  0
  158.0040   -1.1523    0.3092 C   0  0  0  0  0  0  0  0  0  0  0  0
  156.6709   -1.3928    0.3727 N   0  0  0  0  0  0  0  0  0  0  0  0
  159.7020    0.0302   -0.1105 H   0  0  0  0  0  0  0  0  0  0  0  0
  159.7281    2.5240   -0.9796 H   0  0  0  0  0  0  0  0  0  0  0  0
  157.8506    4.3545   -1.4960 H   0  0  0  0  0  0  0  0  0  0  0  0
  155.9409    0.8067   -0.2399 H   0  0  0  0  0  0  0  0  0  0  0  0
  154.0355    4.3823   -3.2412 H   0  0  0  0  0  0  0  0  0  0  0  0
  153.9906    6.7640   -3.9406 H   0  0  0  0  0  0  0  0  0  0  0  0
  156.1973    7.8400   -0.4288 H   0  0  0  0  0  0  0  0  0  0  0  0
  156.2320    5.4619    0.2803 H   0  0  0  0  0  0  0  0  0  0  0  0
  152.4910    4.3857   -1.1224 H   0  0  0  0  0  0  0  0  0  0  0  0
  150.6579    2.5009   -0.5635 H   0  0  0  0  0  0  0  0  0  0  0  0
  150.7479   -2.6045    0.6839 H   0  0  0  0  0  0  0  0  0  0  0  0
  152.6325   -4.4217    1.2149 H   0  0  0  0  0  0  0  0  0  0  0  0
  154.5267   -0.7704    0.2656 H   0  0  0  0  0  0  0  0  0  0  0  0
  156.4053   -5.4156   -0.3300 H   0  0  0  0  0  0  0  0  0  0  0  0
  156.4706   -7.7911    0.3873 H   0  0  0  0  0  0  0  0  0  0  0  0
  154.3502   -6.7712    3.9684 H   0  0  0  0  0  0  0  0  0  0  0  0
  154.2941   -4.3932    3.2604 H   0  0  0  0  0  0  0  0  0  0  0  0
  158.0049   -4.2711    1.3934 H   0  0  0  0  0  0  0  0  0  0  0  0
  159.8250   -2.3906    0.7685 H   0  0  0  0  0  0  0  0  0  0  0  0
   83.7142    0.0402   -0.0315 C   0  0  0  0  0  0  0  0  0  0  0  0
   82.4856    0.0417   -0.0185 C   0  0  0  0  0  0  0  0  0  0  0  0
   81.1416    0.0380   -0.0065 C   0  0  0  0  0  0  0  0  0  0  0  0
   79.9176    0.0297    0.0032 C   0  0  0  0  0  0  0  0  0  0  0  0
   85.0580    0.0353   -0.0453 C   0  0  0  0  0  0  0  0  0  0  0  0
   86.2822    0.0259   -0.0565 C   0  0  0  0  0  0  0  0  0  0  0  0
   99.7495   -0.0400   -0.0621 C   0  0  0  0  0  0  0  0  0  0  0  0
   98.5207   -0.0371   -0.0636 C   0  0  0  0  0  0  0  0  0  0  0  0
   97.1773   -0.0352   -0.0662 C   0  0  0  0  0  0  0  0  0  0  0  0
   95.9529   -0.0308   -0.0712 C   0  0  0  0  0  0  0  0  0  0  0  0
  101.0929   -0.0417   -0.0611 C   0  0  0  0  0  0  0  0  0  0  0  0
  102.3174   -0.0460   -0.0597 C   0  0  0  0  0  0  0  0  0  0  0  0
  115.7837   -0.0251   -0.0288 C   0  0  0  0  0  0  0  0  0  0  0  0
  114.5548   -0.0264   -0.0293 C   0  0  0  0  0  0  0  0  0  0  0  0
  113.2115   -0.0287   -0.0308 C   0  0  0  0  0  0  0  0  0  0  0  0
  111.9871   -0.0308   -0.0363 C   0  0  0  0  0  0  0  0  0  0  0  0
  117.1271   -0.0252   -0.0322 C   0  0  0  0  0  0  0  0  0  0  0  0
  118.3515   -0.0299   -0.0353 C   0  0  0  0  0  0  0  0  0  0  0  0
  131.8176   -0.0576   -0.0613 C   0  0  0  0  0  0  0  0  0  0  0  0
  130.5887   -0.0547   -0.0646 C   0  0  0  0  0  0  0  0  0  0  0  0
  129.2454   -0.0528   -0.0649 C   0  0  0  0  0  0  0  0  0  0  0  0
  128.0209   -0.0512   -0.0671 C   0  0  0  0  0  0  0  0  0  0  0  0
  133.1610   -0.0603   -0.0596 C   0  0  0  0  0  0  0  0  0  0  0  0
  134.3854   -0.0671   -0.0581 C   0  0  0  0  0  0  0  0  0  0  0  0
  147.8531   -0.0631    0.0204 C   0  0  0  0  0  0  0  0  0  0  0  0
  146.6246   -0.0716    0.0140 C   0  0  0  0  0  0  0  0  0  0  0  0
  145.2806   -0.0792    0.0054 C   0  0  0  0  0  0  0  0  0  0  0  0
  144.0565   -0.0837   -0.0055 C   0  0  0  0  0  0  0  0  0  0  0  0
  149.1972   -0.0521    0.0248 C   0  0  0  0  0  0  0  0  0  0  0  0
  150.4212   -0.0391    0.0254 C   0  0  0  0  0  0  0  0  0  0  0  0
   87.6869    0.0140   -0.0669 C   0  0  0  0  0  0  0  0  0  0  0  0
   88.3175    1.0183   -0.8266 C   0  0  0  0  0  0  0  0  0  0  0  0
   87.6728    2.0492   -1.5576 C   0  0  0  0  0  0  0  0  0  0  0  0
   88.6393    2.7936   -2.1768 C   0  0  0  0  0  0  0  0  0  0  0  0
   89.9029    2.2313   -1.8477 C   0  0  0  0  0  0  0  0  0  0  0  0
   89.6584    1.1689   -1.0204 N   0  0  0  0  0  0  0  0  0  0  0  0
   91.1650    2.6771   -2.2615 C   0  0  0  0  0  0  0  0  0  0  0  0
   91.1834    3.8264   -3.1971 C   0  0  0  0  0  0  0  0  0  0  0  0
   91.8173    5.0195   -2.8366 C   0  0  0  0  0  0  0  0  0  0  0  0
   91.8382    6.0951   -3.7056 C   0  0  0  0  0  0  0  0  0  0  0  0
   91.2237    5.9754   -4.9489 C   0  0  0  0  0  0  0  0  0  0  0  0
   91.2450    7.1007   -5.8668 N   0  0  0  0  0  0  0  0  0  0  0  0
   90.6934    6.9642   -6.9287 O   0  0  0  0  0  0  0  0  0  0  0  0
   91.8123    8.1009   -5.5094 O   0  0  0  0  0  0  0  0  0  0  0  0
   90.5889    4.7961   -5.3279 C   0  0  0  0  0  0  0  0  0  0  0  0
   90.5690    3.7283   -4.4493 C   0  0  0  0  0  0  0  0  0  0  0  0
   92.3897    2.1323   -1.8703 C   0  0  0  0  0  0  0  0  0  0  0  0
   93.6755    2.5835   -2.3731 C   0  0  0  0  0  0  0  0  0  0  0  0
   94.6109    1.8287   -1.7611 C   0  0  0  0  0  0  0  0  0  0  0  0
   92.5642    1.1079   -0.9912 N   0  0  0  0  0  0  0  0  0  0  0  0
   93.8948    0.9122   -0.8955 C   0  0  0  0  0  0  0  0  0  0  0  0
   94.5486   -0.0285   -0.0743 C   0  0  0  0  0  0  0  0  0  0  0  0
   93.9184   -0.9793    0.7519 C   0  0  0  0  0  0  0  0  0  0  0  0
   94.5641   -1.9122    1.6038 C   0  0  0  0  0  0  0  0  0  0  0  0
   93.5975   -2.6656    2.2117 C   0  0  0  0  0  0  0  0  0  0  0  0
   92.3328   -2.2193    1.7395 C   0  0  0  0  0  0  0  0  0  0  0  0
   92.5773   -1.1915    0.8692 N   0  0  0  0  0  0  0  0  0  0  0  0
   91.0706   -2.7081    2.0994 C   0  0  0  0  0  0  0  0  0  0  0  0
   91.0527   -3.8576    3.0348 C   0  0  0  0  0  0  0  0  0  0  0  0
   91.6586   -5.0671    2.6810 C   0  0  0  0  0  0  0  0  0  0  0  0
   91.6438   -6.1420    3.5511 C   0  0  0  0  0  0  0  0  0  0  0  0
   91.0224   -6.0047    4.7890 C   0  0  0  0  0  0  0  0  0  0  0  0
   91.0090   -7.1287    5.7089 N   0  0  0  0  0  0  0  0  0  0  0  0
   90.4526   -6.9771    6.7660 O   0  0  0  0  0  0  0  0  0  0  0  0
   91.5560   -8.1424    5.3580 O   0  0  0  0  0  0  0  0  0  0  0  0
   90.4149   -4.8089    5.1613 C   0  0  0  0  0  0  0  0  0  0  0  0
   90.4306   -3.7419    4.2817 C   0  0  0  0  0  0  0  0  0  0  0  0
   89.8456   -2.2062    1.6547 C   0  0  0  0  0  0  0  0  0  0  0  0
   88.5591   -2.7853    1.9999 C   0  0  0  0  0  0  0  0  0  0  0  0
   87.6236   -2.0254    1.3944 C   0  0  0  0  0  0  0  0  0  0  0  0
   88.3400   -0.9916    0.6736 C   0  0  0  0  0  0  0  0  0  0  0  0
   89.6715   -1.1329    0.8364 N   0  0  0  0  0  0  0  0  0  0  0  0
   86.6059    2.1982   -1.5958 H   0  0  0  0  0  0  0  0  0  0  0  0
   88.4913    3.6617   -2.7980 H   0  0  0  0  0  0  0  0  0  0  0  0
   90.3773    0.5828   -0.6094 H   0  0  0  0  0  0  0  0  0  0  0  0
   92.2817    5.1038   -1.8611 H   0  0  0  0  0  0  0  0  0  0  0  0
   92.3218    7.0253   -3.4330 H   0  0  0  0  0  0  0  0  0  0  0  0
   90.1222    4.7268   -6.3032 H   0  0  0  0  0  0  0  0  0  0  0  0
   90.0901    2.8001   -4.7387 H   0  0  0  0  0  0  0  0  0  0  0  0
   93.8211    3.3607   -3.1055 H   0  0  0  0  0  0  0  0  0  0  0  0
   95.6826    1.8626   -1.8734 H   0  0  0  0  0  0  0  0  0  0  0  0
   95.6315   -1.9870    1.7337 H   0  0  0  0  0  0  0  0  0  0  0  0
   93.7462   -3.4537    2.9315 H   0  0  0  0  0  0  0  0  0  0  0  0
   91.8580   -0.6630    0.3869 H   0  0  0  0  0  0  0  0  0  0  0  0
   92.1276   -5.1661    1.7089 H   0  0  0  0  0  0  0  0  0  0  0  0
   92.1047   -7.0851    3.2831 H   0  0  0  0  0  0  0  0  0  0  0  0
   89.9413   -4.7267    6.1322 H   0  0  0  0  0  0  0  0  0  0  0  0
   89.9721   -2.8016    4.5645 H   0  0  0  0  0  0  0  0  0  0  0  0
   88.4134   -3.6623    2.6093 H   0  0  0  0  0  0  0  0  0  0  0  0
   86.5515   -2.1371    1.4110 H   0  0  0  0  0  0  0  0  0  0  0  0
  103.7216   -0.0465   -0.0609 C   0  0  0  0  0  0  0  0  0  0  0  0
  104.3476    0.9518   -0.8328 C   0  0  0  0  0  0  0  0  0  0  0  0
  103.6974    1.9668   -1.5809 C   0  0  0  0  0  0  0  0  0  0  0  0
  104.6606    2.7146   -2.2011 C   0  0  0  0  0  0  0  0  0  0  0  0
  105.9275    2.1702   -1.8554 C   0  0  0  0  0  0  0  0  0  0  0  0
  105.6880    1.1143   -1.0182 N   0  0  0  0  0  0  0  0  0  0  0  0
  107.1878    2.6264   -2.2629 C   0  0  0  0  0  0  0  0  0  0  0  0
  107.2002    3.7681   -3.2080 C   0  0  0  0  0  0  0  0  0  0  0  0
  107.8108    4.9740   -2.8501 C   0  0  0  0  0  0  0  0  0  0  0  0
  107.8239    6.0429   -3.7276 C   0  0  0  0  0  0  0  0  0  0  0  0
  107.2257    5.9032   -4.9766 C   0  0  0  0  0  0  0  0  0  0  0  0
  107.2386    7.0217   -5.9033 N   0  0  0  0  0  0  0  0  0  0  0  0
  106.7012    6.8678   -6.9699 O   0  0  0  0  0  0  0  0  0  0  0  0
  107.7854    8.0338   -5.5475 O   0  0  0  0  0  0  0  0  0  0  0  0
  106.6149    4.7106   -5.3535 C   0  0  0  0  0  0  0  0  0  0  0  0
  106.6022    3.6497   -4.4663 C   0  0  0  0  0  0  0  0  0  0  0  0
  108.4151    2.0981   -1.8581 C   0  0  0  0  0  0  0  0  0  0  0  0
  109.6997    2.5599   -2.3542 C   0  0  0  0  0  0  0  0  0  0  0  0
  110.6383    1.8164   -1.7334 C   0  0  0  0  0  0  0  0  0  0  0  0
  108.5938    1.0799   -0.9727 N   0  0  0  0  0  0  0  0  0  0  0  0
  109.9255    0.8966   -0.8686 C   0  0  0  0  0  0  0  0  0  0  0  0
  110.5829   -0.0364   -0.0416 C   0  0  0  0  0  0  0  0  0  0  0  0
  109.9568   -0.9878    0.7872 C   0  0  0  0  0  0  0  0  0  0  0  0
  110.6066   -1.9138    1.6434 C   0  0  0  0  0  0  0  0  0  0  0  0
  109.6435   -2.6698    2.2536 C   0  0  0  0  0  0  0  0  0  0  0  0
  108.3770   -2.2317    1.7790 C   0  0  0  0  0  0  0  0  0  0  0  0
  108.6167   -1.2064    0.9045 N   0  0  0  0  0  0  0  0  0  0  0  0
  107.1170   -2.7247    2.1416 C   0  0  0  0  0  0  0  0  0  0  0  0
  107.1050   -3.8718    3.0803 C   0  0  0  0  0  0  0  0  0  0  0  0
  107.7123   -5.0804    2.7259 C   0  0  0  0  0  0  0  0  0  0  0  0
  107.7012   -6.1548    3.5967 C   0  0  0  0  0  0  0  0  0  0  0  0
  107.0826   -6.0176    4.8360 C   0  0  0  0  0  0  0  0  0  0  0  0
  107.0718   -7.1416    5.7560 N   0  0  0  0  0  0  0  0  0  0  0  0
  106.5175   -6.9902    6.8143 O   0  0  0  0  0  0  0  0  0  0  0  0
  107.6183   -8.1551    5.4037 O   0  0  0  0  0  0  0  0  0  0  0  0
  106.4749   -4.8222    5.2094 C   0  0  0  0  0  0  0  0  0  0  0  0
  106.4866   -3.7558    4.3289 C   0  0  0  0  0  0  0  0  0  0  0  0
  105.8898   -2.2313    1.6945 C   0  0  0  0  0  0  0  0  0  0  0  0
  104.6058   -2.8124    2.0456 C   0  0  0  0  0  0  0  0  0  0  0  0
  103.6672   -2.0637    1.4311 C   0  0  0  0  0  0  0  0  0  0  0  0
  104.3793   -1.0351    0.6986 C   0  0  0  0  0  0  0  0  0  0  0  0
  105.7109   -1.1671    0.8649 N   0  0  0  0  0  0  0  0  0  0  0  0
  102.6293    2.1041   -1.6289 H   0  0  0  0  0  0  0  0  0  0  0  0
  104.5081    3.5737   -2.8336 H   0  0  0  0  0  0  0  0  0  0  0  0
  106.4101    0.5409   -0.5950 H   0  0  0  0  0  0  0  0  0  0  0  0
  108.2626    5.0736   -1.8702 H   0  0  0  0  0  0  0  0  0  0  0  0
  108.2889    6.9832   -3.4570 H   0  0  0  0  0  0  0  0  0  0  0  0
  106.1608    4.6259   -6.3334 H   0  0  0  0  0  0  0  0  0  0  0  0
  106.1416    2.7116   -4.7533 H   0  0  0  0  0  0  0  0  0  0  0  0
  109.8423    3.3361   -3.0883 H   0  0  0  0  0  0  0  0  0  0  0  0
  111.7103    1.8601   -1.8390 H   0  0  0  0  0  0  0  0  0  0  0  0
  111.6744   -1.9826    1.7743 H   0  0  0  0  0  0  0  0  0  0  0  0
  109.7956   -3.4544    2.9766 H   0  0  0  0  0  0  0  0  0  0  0  0
  107.8949   -0.6842    0.4191 H   0  0  0  0  0  0  0  0  0  0  0  0
  108.1790   -5.1792    1.7528 H   0  0  0  0  0  0  0  0  0  0  0  0
  108.1627   -7.0974    3.3281 H   0  0  0  0  0  0  0  0  0  0  0  0
  106.0038   -4.7400    6.1815 H   0  0  0  0  0  0  0  0  0  0  0  0
  106.0276   -2.8159    4.6123 H   0  0  0  0  0  0  0  0  0  0  0  0
  104.4638   -3.6830    2.6650 H   0  0  0  0  0  0  0  0  0  0  0  0
  102.5955   -2.1801    1.4482 H   0  0  0  0  0  0  0  0  0  0  0  0
  119.7556   -0.0337   -0.0426 C   0  0  0  0  0  0  0  0  0  0  0  0
  120.3809    0.9629   -0.8172 C   0  0  0  0  0  0  0  0  0  0  0  0
  119.7302    1.9814   -1.5602 C   0  0  0  0  0  0  0  0  0  0  0  0
  120.6926    2.7261   -2.1853 C   0  0  0  0  0  0  0  0  0  0  0  0
  121.9594    2.1761   -1.8482 C   0  0  0  0  0  0  0  0  0  0  0  0
  121.7208    1.1202   -1.0106 N   0  0  0  0  0  0  0  0  0  0  0  0
  123.2190    2.6271   -2.2631 C   0  0  0  0  0  0  0  0  0  0  0  0
  123.2304    3.7707   -3.2061 C   0  0  0  0  0  0  0  0  0  0  0  0
  123.8485    4.9731   -2.8493 C   0  0  0  0  0  0  0  0  0  0  0  0
  123.8599    6.0442   -3.7240 C   0  0  0  0  0  0  0  0  0  0  0  0
  123.2525    5.9103   -4.9692 C   0  0  0  0  0  0  0  0  0  0  0  0
  123.2633    7.0313   -5.8929 N   0  0  0  0  0  0  0  0  0  0  0  0
  122.7174    6.8826   -6.9559 O   0  0  0  0  0  0  0  0  0  0  0  0
  123.8169    8.0402   -5.5383 O   0  0  0  0  0  0  0  0  0  0  0  0
  122.6343    4.7212   -5.3450 C   0  0  0  0  0  0  0  0  0  0  0  0
  122.6233    3.6580   -4.4605 C   0  0  0  0  0  0  0  0  0  0  0  0
  124.4466    2.0926   -1.8672 C   0  0  0  0  0  0  0  0  0  0  0  0
  125.7299    2.5492   -2.3711 C   0  0  0  0  0  0  0  0  0  0  0  0
  126.6692    1.8011   -1.7569 C   0  0  0  0  0  0  0  0  0  0  0  0
  124.6264    1.0728   -0.9839 N   0  0  0  0  0  0  0  0  0  0  0  0
  125.9581    0.8838   -0.8882 C   0  0  0  0  0  0  0  0  0  0  0  0
  126.6167   -0.0522   -0.0656 C   0  0  0  0  0  0  0  0  0  0  0  0
  125.9918   -1.0019    0.7661 C   0  0  0  0  0  0  0  0  0  0  0  0
  126.6431   -1.9313    1.6175 C   0  0  0  0  0  0  0  0  0  0  0  0
  125.6806   -2.6831    2.2340 C   0  0  0  0  0  0  0  0  0  0  0  0
  124.4131   -2.2389    1.7681 C   0  0  0  0  0  0  0  0  0  0  0  0
  124.6515   -1.2148    0.8921 N   0  0  0  0  0  0  0  0  0  0  0  0
  123.1532   -2.7256    2.1399 C   0  0  0  0  0  0  0  0  0  0  0  0
  123.1416   -3.8712    3.0804 C   0  0  0  0  0  0  0  0  0  0  0  0
  123.7398   -5.0838    2.7244 C   0  0  0  0  0  0  0  0  0  0  0  0
  123.7284   -6.1564    3.5974 C   0  0  0  0  0  0  0  0  0  0  0  0
  123.1187   -6.0134    4.8404 C   0  0  0  0  0  0  0  0  0  0  0  0
  123.1074   -7.1357    5.7626 N   0  0  0  0  0  0  0  0  0  0  0  0
  122.5612   -6.9790    6.8242 O   0  0  0  0  0  0  0  0  0  0  0  0
  123.6454   -8.1531    5.4085 O   0  0  0  0  0  0  0  0  0  0  0  0
  122.5202   -4.8140    5.2154 C   0  0  0  0  0  0  0  0  0  0  0  0
  122.5320   -3.7494    4.3329 C   0  0  0  0  0  0  0  0  0  0  0  0
  121.9253   -2.2267    1.7007 C   0  0  0  0  0  0  0  0  0  0  0  0
  120.6411   -2.8020    2.0603 C   0  0  0  0  0  0  0  0  0  0  0  0
  119.7019   -2.0499    1.4509 C   0  0  0  0  0  0  0  0  0  0  0  0
  120.4139   -1.0247    0.7134 C   0  0  0  0  0  0  0  0  0  0  0  0
  121.7458   -1.1622    0.8715 N   0  0  0  0  0  0  0  0  0  0  0  0
  118.6624    2.1230   -1.6013 H   0  0  0  0  0  0  0  0  0  0  0  0
  120.5397    3.5867   -2.8156 H   0  0  0  0  0  0  0  0  0  0  0  0
  122.4430    0.5433   -0.5925 H   0  0  0  0  0  0  0  0  0  0  0  0
  124.3075    5.0682   -1.8722 H   0  0  0  0  0  0  0  0  0  0  0  0
  124.3307    6.9819   -3.4542 H   0  0  0  0  0  0  0  0  0  0  0  0
  122.1730    4.6409   -6.3220 H   0  0  0  0  0  0  0  0  0  0  0  0
  122.1568    2.7226   -4.7468 H   0  0  0  0  0  0  0  0  0  0  0  0
  125.8711    3.3254   -3.1056 H   0  0  0  0  0  0  0  0  0  0  0  0
  127.7407    1.8401   -1.8694 H   0  0  0  0  0  0  0  0  0  0  0  0
  127.7113   -2.0050    1.7412 H   0  0  0  0  0  0  0  0  0  0  0  0
  125.8341   -3.4686    2.9556 H   0  0  0  0  0  0  0  0  0  0  0  0
  123.9288   -0.6890    0.4119 H   0  0  0  0  0  0  0  0  0  0  0  0
  124.1995   -5.1871    1.7484 H   0  0  0  0  0  0  0  0  0  0  0  0
  124.1828   -7.1022    3.3275 H   0  0  0  0  0  0  0  0  0  0  0  0
  122.0559   -4.7273    6.1905 H   0  0  0  0  0  0  0  0  0  0  0  0
  122.0800   -2.8064    4.6173 H   0  0  0  0  0  0  0  0  0  0  0  0
  120.4991   -3.6715    2.6812 H   0  0  0  0  0  0  0  0  0  0  0  0
  118.6299   -2.1617    1.4748 H   0  0  0  0  0  0  0  0  0  0  0  0
  135.7896   -0.0733   -0.0573 C   0  0  0  0  0  0  0  0  0  0  0  0
  136.4212    0.9265   -0.8224 C   0  0  0  0  0  0  0  0  0  0  0  0
  135.7765    1.9477   -1.5671 C   0  0  0  0  0  0  0  0  0  0  0  0
  136.7441    2.6971   -2.1782 C   0  0  0  0  0  0  0  0  0  0  0  0
  138.0084    2.1479   -1.8302 C   0  0  0  0  0  0  0  0  0  0  0  0
  137.7627    1.0869   -1.0010 N   0  0  0  0  0  0  0  0  0  0  0  0
  139.2714    2.6052   -2.2269 C   0  0  0  0  0  0  0  0  0  0  0  0
  139.2905    3.7563   -3.1605 C   0  0  0  0  0  0  0  0  0  0  0  0
  139.9015    4.9573   -2.7872 C   0  0  0  0  0  0  0  0  0  0  0  0
  139.9194    6.0357   -3.6527 C   0  0  0  0  0  0  0  0  0  0  0  0
  139.3255    5.9108   -4.9054 C   0  0  0  0  0  0  0  0  0  0  0  0
  139.3426    7.0397   -5.8192 N   0  0  0  0  0  0  0  0  0  0  0  0
  138.8103    6.8977   -6.8901 O   0  0  0  0  0  0  0  0  0  0  0  0
  139.8870    8.0480   -5.4493 O   0  0  0  0  0  0  0  0  0  0  0  0
  138.7147    4.7232   -5.2977 C   0  0  0  0  0  0  0  0  0  0  0  0
  138.6973    3.6525   -4.4225 C   0  0  0  0  0  0  0  0  0  0  0  0
  140.4961    2.0713   -1.8202 C   0  0  0  0  0  0  0  0  0  0  0  0
  141.7839    2.5368   -2.3045 C   0  0  0  0  0  0  0  0  0  0  0  0
  142.7183    1.7859   -1.6862 C   0  0  0  0  0  0  0  0  0  0  0  0
  140.6686    1.0440   -0.9446 N   0  0  0  0  0  0  0  0  0  0  0  0
  141.9999    0.8577   -0.8353 C   0  0  0  0  0  0  0  0  0  0  0  0
  142.6516   -0.0875   -0.0180 C   0  0  0  0  0  0  0  0  0  0  0  0
  142.0200   -1.0474    0.7963 C   0  0  0  0  0  0  0  0  0  0  0  0
  142.6643   -1.9842    1.6449 C   0  0  0  0  0  0  0  0  0  0  0  0
  141.6968   -2.7391    2.2495 C   0  0  0  0  0  0  0  0  0  0  0  0
  140.4329   -2.2898    1.7785 C   0  0  0  0  0  0  0  0  0  0  0  0
  140.6785   -1.2604    0.9108 N   0  0  0  0  0  0  0  0  0  0  0  0
  139.1696   -2.7751    2.1406 C   0  0  0  0  0  0  0  0  0  0  0  0
  139.1485   -3.9205    3.0811 C   0  0  0  0  0  0  0  0  0  0  0  0
  139.7468   -5.1351    2.7322 C   0  0  0  0  0  0  0  0  0  0  0  0
  139.7253   -6.2063    3.6068 C   0  0  0  0  0  0  0  0  0  0  0  0
  139.1052   -6.0599    4.8444 C   0  0  0  0  0  0  0  0  0  0  0  0
  139.0833   -7.1805    5.7682 N   0  0  0  0  0  0  0  0  0  0  0  0
  138.5286   -7.0207    6.8250 O   0  0  0  0  0  0  0  0  0  0  0  0
  139.6220   -8.1999    5.4207 O   0  0  0  0  0  0  0  0  0  0  0  0
  138.5063   -4.8585    5.2124 C   0  0  0  0  0  0  0  0  0  0  0  0
  138.5285   -3.7954    4.3283 C   0  0  0  0  0  0  0  0  0  0  0  0
  137.9455   -2.2731    1.6945 C   0  0  0  0  0  0  0  0  0  0  0  0
  136.6582   -2.8488    2.0429 C   0  0  0  0  0  0  0  0  0  0  0  0
  135.7239   -2.0942    1.4290 C   0  0  0  0  0  0  0  0  0  0  0  0
  136.4418   -1.0671    0.7000 C   0  0  0  0  0  0  0  0  0  0  0  0
  137.7725   -1.2060    0.8675 N   0  0  0  0  0  0  0  0  0  0  0  0
  134.7089    2.0876   -1.6189 H   0  0  0  0  0  0  0  0  0  0  0  0
  136.5962    3.5605   -2.8059 H   0  0  0  0  0  0  0  0  0  0  0  0
  138.4815    0.5093   -0.5779 H   0  0  0  0  0  0  0  0  0  0  0  0
  140.3497    5.0454   -1.8044 H   0  0  0  0  0  0  0  0  0  0  0  0
  140.3848    6.9723   -3.3700 H   0  0  0  0  0  0  0  0  0  0  0  0
  138.2640    4.6500   -6.2801 H   0  0  0  0  0  0  0  0  0  0  0  0
  138.2366    2.7183   -4.7216 H   0  0  0  0  0  0  0  0  0  0  0  0
  141.9313    3.3202   -3.0298 H   0  0  0  0  0  0  0  0  0  0  0  0
  143.7908    1.8296   -1.7855 H   0  0  0  0  0  0  0  0  0  0  0  0
  143.7316   -2.0601    1.7753 H   0  0  0  0  0  0  0  0  0  0  0  0
  141.8444   -3.5300    2.9665 H   0  0  0  0  0  0  0  0  0  0  0  0
  139.9598   -0.7295    0.4303 H   0  0  0  0  0  0  0  0  0  0  0  0
  140.2144   -5.2413    1.7602 H   0  0  0  0  0  0  0  0  0  0  0  0
  140.1796   -7.1535    3.3424 H   0  0  0  0  0  0  0  0  0  0  0  0
  138.0337   -4.7691    6.1831 H   0  0  0  0  0  0  0  0  0  0  0  0
  138.0763   -2.8509    4.6072 H   0  0  0  0  0  0  0  0  0  0  0  0
  136.5112   -3.7205    2.6596 H   0  0  0  0  0  0  0  0  0  0  0  0
  134.6517   -2.2056    1.4447 H   0  0  0  0  0  0  0  0  0  0  0  0
  1  2  4  0  0  0  0
  2  3  4  0  0  0  0
  3  4  2  0  0  0  0
  4  5  4  0  0  0  0
  2  6  4  0  0  0  0
  5  6  4  0  0  0  0
  5  7  4  0  0  0  0
  7  8  1  0  0  0  0
  8  9  4  0  0  0  0
  9 10  4  0  0  0  0
 10 11  4  0  0  0  0
 11 12  1  0  0  0  0
 12 13  2  0  0  0  0
 12 14  2  0  0  0  0
 13 14  1  0  0  0  0
 11 15  4  0  0  0  0
  8 16  4  0  0  0  0
 15 16  4  0  0  0  0
  7 17  4  0  0  0  0
 17 18  1  0  0  0  0
 18 19  2  0  0  0  0
 17 20  4  0  0  0  0
 19 21  1  0  0  0  0
 20 21  4  0  0  0  0
 21 22  4  0  0  0  0
 22 23  4  0  0  0  0
 23 24  4  0  0  0  0
 24 25  2  0  0  0  0
 25 26  4  0  0  0  0
 23 27  4  0  0  0  0
 26 27  4  0  0  0  0
 26 28  4  0  0  0  0
 28 29  1  0  0  0  0
 29 30  4  0  0  0  0
 30 31  4  0  0  0  0
 31 32  4  0  0  0  0
 32 33  1  0  0  0  0
 33 34  2  0  0  0  0
 33 35  2  0  0  0  0
 34 35  1  0  0  0  0
 32 36  4  0  0  0  0
 29 37  4  0  0  0  0
 36 37  4  0  0  0  0
 28 38  4  0  0  0  0
 38 39  1  0  0  0  0
 39 40  2  0  0  0  0
  1 41  4  0  0  0  0
 40 41  1  0  0  0  0
 38 42  4  0  0  0  0
 41 42  4  0  0  0  0
  1 43  1  0  0  0  0
  3 44  1  0  0  0  0
  4 45  1  0  0  0  0
  6 46  1  0  0  0  0
  9 47  1  0  0  0  0
 10 48  1  0  0  0  0
 15 49  1  0  0  0  0
 16 50  1  0  0  0  0
 18 51  1  0  0  0  0
 19 52  1  0  0  0  0
 24 53  1  0  0  0  0
 25 54  1  0  0  0  0
 27 55  1  0  0  0  0
 30 56  1  0  0  0  0
 31 57  1  0  0  0  0
 36 58  1  0  0  0  0
 37 59  1  0  0  0  0
 39 60  1  0  0  0  0
 40 61  1  0  0  0  0
 62 63  4  0  0  0  0
 63 64  4  0  0  0  0
 64 65  2  0  0  0  0
 65 66  4  0  0  0  0
 63 67  4  0  0  0  0
 66 67  4  0  0  0  0
 66 68  4  0  0  0  0
 68 69  1  0  0  0  0
 69 70  4  0  0  0  0
 70 71  4  0  0  0  0
 71 72  4  0  0  0  0
 72 73  1  0  0  0  0
 73 74  2  0  0  0  0
 73 75  2  0  0  0  0
 74 75  1  0  0  0  0
 72 76  4  0  0  0  0
 69 77  4  0  0  0  0
 76 77  4  0  0  0  0
 68 78  4  0  0  0  0
 78 79  1  0  0  0  0
 79 80  2  0  0  0  0
 78 81  4  0  0  0  0
 80 82  1  0  0  0  0
 81 82  4  0  0  0  0
 82 83  4  0  0  0  0
 83 84  4  0  0  0  0
 84 85  4  0  0  0  0
 85 86  2  0  0  0  0
 86 87  4  0  0  0  0
 84 88  4  0  0  0  0
 87 88  4  0  0  0  0
 87 89  4  0  0  0  0
 89 90  1  0  0  0  0
 90 91  4  0  0  0  0
 91 92  4  0  0  0  0
 92 93  4  0  0  0  0
 93 94  1  0  0  0  0
 94 95  2  0  0  0  0
 94 96  2  0  0  0  0
 95 96  1  0  0  0  0
 93 97  4  0  0  0  0
 90 98  4  0  0  0  0
 97 98  4  0  0  0  0
 89 99  4  0  0  0  0
 99100  1  0  0  0  0
100101  2  0  0  0  0
 62102  4  0  0  0  0
101102  1  0  0  0  0
 99103  4  0  0  0  0
102103  4  0  0  0  0
 62104  1  0  0  0  0
 64105  1  0  0  0  0
 65106  1  0  0  0  0
 67107  1  0  0  0  0
 70108  1  0  0  0  0
 71109  1  0  0  0  0
 76110  1  0  0  0  0
 77111  1  0  0  0  0
 79112  1  0  0  0  0
 80113  1  0  0  0  0
 85114  1  0  0  0  0
 86115  1  0  0  0  0
 88116  1  0  0  0  0
 91117  1  0  0  0  0
 92118  1  0  0  0  0
 97119  1  0  0  0  0
 98120  1  0  0  0  0
100121  1  0  0  0  0
101122  1  0  0  0  0
123124  3  0  0  0  0
124125  4  0  0  0  0
 22126  4  0  0  0  0
125126  3  0  0  0  0
123127  4  0  0  0  0
127128  3  0  0  0  0
129130  3  0  0  0  0
130131  4  0  0  0  0
131132  3  0  0  0  0
129133  4  0  0  0  0
133134  3  0  0  0  0
135136  3  0  0  0  0
136137  4  0  0  0  0
137138  3  0  0  0  0
135139  4  0  0  0  0
139140  3  0  0  0  0
141142  3  0  0  0  0
142143  4  0  0  0  0
143144  3  0  0  0  0
141145  4  0  0  0  0
145146  3  0  0  0  0
147148  3  0  0  0  0
148149  4  0  0  0  0
149150  3  0  0  0  0
147151  4  0  0  0  0
 83152  4  0  0  0  0
151152  3  0  0  0  0
128153  4  0  0  0  0
153154  4  0  0  0  0
154155  4  0  0  0  0
155156  2  0  0  0  0
156157  4  0  0  0  0
154158  4  0  0  0  0
157158  4  0  0  0  0
157159  4  0  0  0  0
159160  1  0  0  0  0
160161  4  0  0  0  0
161162  4  0  0  0  0
162163  4  0  0  0  0
163164  1  0  0  0  0
164165  2  0  0  0  0
164166  2  0  0  0  0
165166  1  0  0  0  0
163167  4  0  0  0  0
160168  4  0  0  0  0
167168  4  0  0  0  0
159169  4  0  0  0  0
169170  1  0  0  0  0
170171  2  0  0  0  0
169172  4  0  0  0  0
171173  1  0  0  0  0
172173  4  0  0  0  0
132174  4  0  0  0  0
173174  4  0  0  0  0
174175  4  0  0  0  0
175176  4  0  0  0  0
176177  2  0  0  0  0
177178  4  0  0  0  0
175179  4  0  0  0  0
178179  4  0  0  0  0
178180  4  0  0  0  0
180181  1  0  0  0  0
181182  4  0  0  0  0
182183  4  0  0  0  0
183184  4  0  0  0  0
184185  1  0  0  0  0
185186  2  0  0  0  0
185187  2  0  0  0  0
186187  1  0  0  0  0
184188  4  0  0  0  0
181189  4  0  0  0  0
188189  4  0  0  0  0
180190  4  0  0  0  0
190191  1  0  0  0  0
191192  2  0  0  0  0
153193  4  0  0  0  0
192193  1  0  0  0  0
190194  4  0  0  0  0
193194  4  0  0  0  0
155195  1  0  0  0  0
156196  1  0  0  0  0
158197  1  0  0  0  0
161198  1  0  0  0  0
162199  1  0  0  0  0
167200  1  0  0  0  0
168201  1  0  0  0  0
170202  1  0  0  0  0
171203  1  0  0  0  0
176204  1  0  0  0  0
177205  1  0  0  0  0
179206  1  0  0  0  0
182207  1  0  0  0  0
183208  1  0  0  0  0
188209  1  0  0  0  0
189210  1  0  0  0  0
191211  1  0  0  0  0
192212  1  0  0  0  0
134213  4  0  0  0  0
213214  4  0  0  0  0
214215  4  0  0  0  0
215216  2  0  0  0  0
216217  4  0  0  0  0
214218  4  0  0  0  0
217218  4  0  0  0  0
217219  4  0  0  0  0
219220  1  0  0  0  0
220221  4  0  0  0  0
221222  4  0  0  0  0
222223  4  0  0  0  0
223224  1  0  0  0  0
224225  2  0  0  0  0
224226  2  0  0  0  0
225226  1  0  0  0  0
223227  4  0  0  0  0
220228  4  0  0  0  0
227228  4  0  0  0  0
219229  4  0  0  0  0
229230  1  0  0  0  0
230231  2  0  0  0  0
229232  4  0  0  0  0
231233  1  0  0  0  0
232233  4  0  0  0  0
138234  4  0  0  0  0
233234  4  0  0  0  0
234235  4  0  0  0  0
235236  4  0  0  0  0
236237  2  0  0  0  0
237238  4  0  0  0  0
235239  4  0  0  0  0
238239  4  0  0  0  0
238240  4  0  0  0  0
240241  1  0  0  0  0
241242  4  0  0  0  0
242243  4  0  0  0  0
243244  4  0  0  0  0
244245  1  0  0  0  0
245246  2  0  0  0  0
245247  2  0  0  0  0
246247  1  0  0  0  0
244248  4  0  0  0  0
241249  4  0  0  0  0
248249  4  0  0  0  0
240250  4  0  0  0  0
250251  1  0  0  0  0
251252  2  0  0  0  0
213253  4  0  0  0  0
252253  1  0  0  0  0
250254  4  0  0  0  0
253254  4  0  0  0  0
215255  1  0  0  0  0
216256  1  0  0  0  0
218257  1  0  0  0  0
221258  1  0  0  0  0
222259  1  0  0  0  0
227260  1  0  0  0  0
228261  1  0  0  0  0
230262  1  0  0  0  0
231263  1  0  0  0  0
236264  1  0  0  0  0
237265  1  0  0  0  0
239266  1  0  0  0  0
242267  1  0  0  0  0
243268  1  0  0  0  0
248269  1  0  0  0  0
249270  1  0  0  0  0
251271  1  0  0  0  0
252272  1  0  0  0  0
140273  4  0  0  0  0
273274  4  0  0  0  0
274275  4  0  0  0  0
275276  2  0  0  0  0
276277  4  0  0  0  0
274278  4  0  0  0  0
277278  4  0  0  0  0
277279  4  0  0  0  0
279280  1  0  0  0  0
280281  4  0  0  0  0
281282  4  0  0  0  0
282283  4  0  0  0  0
283284  1  0  0  0  0
284285  2  0  0  0  0
284286  2  0  0  0  0
285286  1  0  0  0  0
283287  4  0  0  0  0
280288  4  0  0  0  0
287288  4  0  0  0  0
279289  4  0  0  0  0
289290  1  0  0  0  0
290291  2  0  0  0  0
289292  4  0  0  0  0
291293  1  0  0  0  0
292293  4  0  0  0  0
144294  4  0  0  0  0
293294  4  0  0  0  0
294295  4  0  0  0  0
295296  4  0  0  0  0
296297  2  0  0  0  0
297298  4  0  0  0  0
295299  4  0  0  0  0
298299  4  0  0  0  0
298300  4  0  0  0  0
300301  1  0  0  0  0
301302  4  0  0  0  0
302303  4  0  0  0  0
303304  4  0  0  0  0
304305  1  0  0  0  0
305306  2  0  0  0  0
305307  2  0  0  0  0
306307  1  0  0  0  0
304308  4  0  0  0  0
301309  4  0  0  0  0
308309  4  0  0  0  0
300310  4  0  0  0  0
310311  1  0  0  0  0
311312  2  0  0  0  0
273313  4  0  0  0  0
312313  1  0  0  0  0
310314  4  0  0  0  0
313314  4  0  0  0  0
275315  1  0  0  0  0
276316  1  0  0  0  0
278317  1  0  0  0  0
281318  1  0  0  0  0
282319  1  0  0  0  0
287320  1  0  0  0  0
288321  1  0  0  0  0
290322  1  0  0  0  0
291323  1  0  0  0  0
296324  1  0  0  0  0
297325  1  0  0  0  0
299326  1  0  0  0  0
302327  1  0  0  0  0
303328  1  0  0  0  0
308329  1  0  0  0  0
309330  1  0  0  0  0
311331  1  0  0  0  0
312332  1  0  0  0  0
146333  4  0  0  0  0
333334  4  0  0  0  0
334335  4  0  0  0  0
335336  2  0  0  0  0
336337  4  0  0  0  0
334338  4  0  0  0  0
337338  4  0  0  0  0
337339  4  0  0  0  0
339340  1  0  0  0  0
340341  4  0  0  0  0
341342  4  0  0  0  0
342343  4  0  0  0  0
343344  1  0  0  0  0
344345  2  0  0  0  0
344346  2  0  0  0  0
345346  1  0  0  0  0
343347  4  0  0  0  0
340348  4  0  0  0  0
347348  4  0  0  0  0
339349  4  0  0  0  0
349350  1  0  0  0  0
350351  2  0  0  0  0
349352  4  0  0  0  0
351353  1  0  0  0  0
352353  4  0  0  0  0
150354  4  0  0  0  0
353354  4  0  0  0  0
354355  4  0  0  0  0
355356  4  0  0  0  0
356357  2  0  0  0  0
357358  4  0  0  0  0
355359  4  0  0  0  0
358359  4  0  0  0  0
358360  4  0  0  0  0
360361  1  0  0  0  0
361362  4  0  0  0  0
362363  4  0  0  0  0
363364  4  0  0  0  0
364365  1  0  0  0  0
365366  2  0  0  0  0
365367  2  0  0  0  0
366367  1  0  0  0  0
364368  4  0  0  0  0
361369  4  0  0  0  0
368369  4  0  0  0  0
360370  4  0  0  0  0
370371  1  0  0  0  0
371372  2  0  0  0  0
333373  4  0  0  0  0
372373  1  0  0  0  0
370374  4  0  0  0  0
373374  4  0  0  0  0
335375  1  0  0  0  0
336376  1  0  0  0  0
338377  1  0  0  0  0
341378  1  0  0  0  0
342379  1  0  0  0  0
347380  1  0  0  0  0
348381  1  0  0  0  0
350382  1  0  0  0  0
351383  1  0  0  0  0
356384  1  0  0  0  0
357385  1  0  0  0  0
359386  1  0  0  0  0
362387  1  0  0  0  0
363388  1  0  0  0  0
368389  1  0  0  0  0
369390  1  0  0  0  0
371391  1  0  0  0  0
372392  1  0  0  0  0
M  END
