310

C 45.884647 -0.022606 -0.019166
C 46.609835 -1.401377 0.024017
C 45.992192 -2.627273 0.117645
C 47.014115 -3.610176 0.088789
C 48.222497 -2.950382 -0.021704
N 47.965452 -1.602841 -0.029428
C 49.656218 -3.620465 -0.143430
C 49.708298 -5.106349 -0.290917
C 49.637656 -5.698605 -1.573074
C 49.527487 -4.852685 -2.814863
C 49.676026 -7.097807 -1.692383
C 49.790555 -7.916849 -0.564048
C 49.794706 -9.408271 -0.706455
C 49.844098 -7.326078 0.702833
C 49.809593 -5.930072 0.854509
C 49.879235 -5.333390 2.236102
C 50.782481 -2.855882 -0.140425
C 52.095391 -3.445313 -0.301181
C 52.996870 -2.471346 -0.285428
N 50.972058 -1.503466 -0.014921
C 52.309165 -1.208265 -0.096964
C 52.980842 -0.027205 -0.030232
C 52.208835 1.340736 0.219188
C 52.779242 2.531040 0.628439
C 51.751783 3.503031 0.686755
C 50.577147 2.879334 0.324935
N 50.858088 1.555552 0.074841
C 49.149724 3.571029 0.220238
C 49.092275 5.062167 0.214324
C 49.227449 5.772027 -1.000830
C 49.423632 5.045891 -2.306085
C 49.167977 7.175660 -0.993496
C 48.986537 7.885255 0.198219
C 48.882697 9.379929 0.186695
C 48.842580 7.177204 1.396155
C 48.903162 5.774034 1.421929
C 48.737267 5.051603 2.733312
C 48.030333 2.805808 0.128221
C 46.701000 3.381635 0.023949
C 45.819197 2.389019 -0.034734
C 46.549852 1.146708 0.021849
N 47.873674 1.447420 0.110957
H 44.803589 -0.021775 -0.093954
H 44.928886 -2.795432 0.187452
H 46.883337 -4.680818 0.129642
H 48.670914 -0.869757 -0.064378
H 48.626119 -4.233186 -2.783386
H 49.459205 -5.474408 -3.714342
H 50.410742 -4.216842 -2.927527
H 49.617494 -7.548194 -2.680117
H 48.770097 -9.790901 -0.672783
H 50.253368 -9.709567 -1.654010
H 50.373647 -9.876779 0.096371
H 49.915412 -7.955005 1.586647
H 48.978024 -4.750964 2.450832
H 49.949913 -6.113260 3.002246
H 50.764099 -4.697977 2.339546
H 52.311877 -4.491770 -0.422293
H 54.055900 -2.621682 -0.387123
H 53.822486 2.693208 0.852406
H 51.857044 4.542799 0.958882
H 50.163481 0.846318 -0.147478
H 49.507475 5.748455 -3.142531
H 50.345974 4.457258 -2.286881
H 48.570780 4.392977 -2.516429
H 49.260822 7.715637 -1.932410
H 49.325922 9.807044 1.091797
H 47.832477 9.681602 0.131232
H 49.416143 9.806023 -0.668937
H 48.678693 7.719216 2.324094
H 48.719644 5.755127 3.573137
H 47.794047 4.497404 2.750285
H 49.571869 4.366957 2.911054
H 46.467443 4.431003 0.000830
H 44.752062 2.488523 -0.113399
C 94.473959 -0.031236 -0.018946
C 93.748771 1.347948 -0.045900
C 94.366414 2.577018 -0.014703
C 93.344491 3.557184 -0.093481
C 92.136109 2.892627 -0.170295
N 92.393154 1.546435 -0.109516
C 90.702388 3.555657 -0.325923
C 90.650308 5.032123 -0.548745
C 90.720950 5.558444 -1.859348
C 90.831119 4.650499 -3.056535
C 90.682580 6.949773 -2.049622
C 90.568051 7.825108 -0.964376
C 90.563900 9.307363 -1.182406
C 90.514508 7.299493 0.330895
C 90.549013 5.913002 0.553332
C 90.479371 5.387315 1.963468
C 89.576125 2.792215 -0.284059
C 88.263215 3.372713 -0.474568
C 87.361736 2.400805 -0.409330
N 89.386548 1.447926 -0.089977
C 88.049441 1.148936 -0.156909
C 87.377764 -0.027205 -0.030232
C 88.149771 -1.380700 0.288396
C 87.579364 -2.548665 0.757619
C 88.606823 -3.516435 0.865265
C 89.781459 -2.911934 0.472210
N 89.500518 -1.602576 0.155154
C 91.208882 -3.608057 0.402806
C 91.266331 -5.097569 0.472693
C 91.131157 -5.868276 -0.704810
C 90.934974 -5.209422 -2.045285
C 91.190629 -7.269721 -0.626140
C 91.372069 -7.917826 0.600101
C 91.475909 -9.411154 0.664564
C 91.516026 -7.149800 1.760500
C 91.455444 -5.747134 1.714920
C 91.621339 -4.958982 2.987887
C 92.328273 -2.848502 0.272014
C 93.657606 -3.428886 0.197144
C 94.539409 -2.440535 0.088085
C 93.808754 -1.196954 0.081450
N 92.484932 -1.492748 0.185728
H 95.555017 -0.035868 -0.093595
H 95.429720 2.748508 0.046466
H 93.475269 4.628519 -0.107101
H 91.687692 0.812522 -0.107160
H 91.732486 4.033400 -2.993611
H 90.899401 5.225699 -3.986453
H 89.947864 4.009751 -3.136735
H 90.741112 7.349373 -3.058972
H 91.588509 9.691210 -1.168225
H 90.105237 9.560107 -2.144050
H 89.984959 9.816072 -0.404430
H 90.443194 7.972530 1.181599
H 91.380582 4.816557 2.207524
H 90.408693 6.205119 2.688981
H 89.594507 4.757981 2.099075
H 88.046729 4.411661 -0.648713
H 86.302706 2.545777 -0.518535
H 86.536120 -2.699239 0.989539
H 88.501562 -4.541027 1.189890
H 90.195125 -0.905559 -0.102927
H 90.851131 -5.953592 -2.844940
H 90.012632 -4.620573 -2.056026
H 91.787826 -4.568043 -2.288545
H 91.097784 -7.856724 -1.536395
H 91.032684 -9.791712 1.590206
H 92.526129 -9.715256 0.624506
H 90.942463 -9.880187 -0.168304
H 91.679912 -7.643947 2.714789
H 91.638962 -5.618909 3.862386
H 92.564559 -4.404636 2.976670
H 90.786737 -4.266187 3.130600
H 93.891163 -4.478072 0.227394
H 95.606544 -2.543909 0.014579
C 56.228766 -0.014769 -0.027790
C 54.976495 -0.033950 -0.032139
C 57.542434 -0.015535 -0.025858
C 59.045568 -0.033950 -0.032139
C 69.442040 -0.014769 -0.027790
C 68.189770 -0.033950 -0.032139
C 70.755708 -0.015535 -0.025858
C 72.258842 -0.033950 -0.032139
C 82.655315 -0.014769 -0.027790
C 81.403044 -0.033950 -0.032139
C 83.968983 -0.015535 -0.025858
C 85.472116 -0.033950 -0.032139
C 59.982941 0.030325 0.033246
C 60.771330 -0.754672 1.163256
C 60.243822 -1.252381 2.337550
C 61.279335 -1.955400 3.003190
C 62.410864 -1.854567 2.222701
N 62.109363 -1.065152 1.140355
C 63.809930 -2.545961 2.502910
C 63.817300 -3.778002 3.346383
C 63.557514 -5.038970 2.761023
C 63.275011 -5.167786 1.286699
C 63.577073 -6.192830 3.562587
C 63.840116 -6.116465 4.934228
C 63.901522 -7.361094 5.765531
C 64.107106 -4.868086 5.506164
C 64.088642 -3.695306 4.732336
C 64.388290 -2.373309 5.390109
C 64.942515 -2.047408 1.939141
C 66.234325 -2.674268 2.130757
C 67.143130 -1.975192 1.460643
N 65.148659 -0.964163 1.129297
C 66.476379 -0.867648 0.805104
C 67.143278 0.030325 0.033246
C 66.354839 1.218890 -0.658438
C 66.879336 2.433364 -1.051810
C 65.844184 3.151525 -1.702015
C 64.714930 2.360239 -1.673709
N 65.018435 1.216398 -0.977635
C 63.315956 2.693372 -2.342571
C 63.310167 3.640798 -3.496646
C 63.579695 3.169366 -4.802333
C 63.861839 1.711832 -5.061252
C 63.582900 4.072608 -5.878300
C 63.312841 5.431444 -5.682740
C 63.352874 6.386195 -6.837071
C 63.060383 5.895098 -4.387337
C 63.051685 5.016639 -3.290783
C 62.765256 5.556651 -1.913816
C 62.183915 2.088965 -1.892869
C 60.892199 2.331737 -2.500727
C 59.983886 1.607683 -1.856890
C 60.650571 0.866452 -0.804790
N 61.978867 1.193121 -0.879609
H 59.222529 -1.145733 2.669487
H 61.203708 -2.493581 3.936108
H 62.779160 -0.739925 0.448783
H 62.384191 -4.596264 1.011699
H 64.131176 -4.824427 0.699529
H 63.086406 -6.209412 1.008601
H 63.388240 -7.160412 3.104445
H 63.573320 -7.162366 6.790864
H 63.243671 -8.135888 5.359120
H 64.925906 -7.743839 5.790408
H 64.335811 -4.800704 6.566821
H 63.589790 -1.650362 5.196586
H 64.463735 -2.480991 6.478213
H 65.342521 -1.973873 5.033142
H 66.430866 -3.557492 2.712567
H 68.191549 -2.208912 1.423477
H 67.899344 2.759717 -0.912734
H 65.919713 4.126973 -2.158868
H 64.350628 0.497448 -0.713506
H 64.033749 1.524698 -6.125915
H 63.010276 1.094781 -4.759784
H 64.761143 1.391182 -4.527635
H 63.796227 3.705043 -6.879150
H 63.024292 5.896911 -7.760126
H 64.371147 6.760765 -6.976523
H 62.684398 7.236498 -6.665878
H 62.866089 6.952135 -4.223088
H 63.603346 5.360885 -1.236792
H 62.618234 6.643144 -1.936947
H 61.849483 5.115969 -1.508701
H 60.696016 2.984345 -3.332786
H 58.935726 1.590515 -2.092529
C 73.196216 0.030325 0.033246
C 73.984604 -0.754672 1.163256
C 73.457096 -1.252381 2.337550
C 74.492609 -1.955400 3.003190
C 75.624139 -1.854567 2.222701
N 75.322637 -1.065152 1.140355
C 77.023205 -2.545961 2.502910
C 77.030575 -3.778002 3.346383
C 76.770788 -5.038970 2.761023
C 76.488286 -5.167786 1.286699
C 76.790347 -6.192830 3.562587
C 77.053390 -6.116465 4.934228
C 77.114797 -7.361094 5.765531
C 77.320381 -4.868086 5.506164
C 77.301916 -3.695306 4.732336
C 77.601565 -2.373309 5.390109
C 78.155789 -2.047408 1.939141
C 79.447599 -2.674268 2.130757
C 80.356404 -1.975192 1.460643
N 78.361934 -0.964163 1.129297
C 79.689653 -0.867648 0.805104
C 80.356553 0.030325 0.033246
C 79.568113 1.218890 -0.658438
C 80.092610 2.433364 -1.051810
C 79.057458 3.151525 -1.702015
C 77.928204 2.360239 -1.673709
N 78.231709 1.216398 -0.977635
C 76.529231 2.693372 -2.342571
C 76.523441 3.640798 -3.496646
C 76.792969 3.169366 -4.802333
C 77.075113 1.711832 -5.061252
C 76.796174 4.072608 -5.878300
C 76.526115 5.431444 -5.682740
C 76.566148 6.386195 -6.837071
C 76.273657 5.895098 -4.387337
C 76.264959 5.016639 -3.290783
C 75.978530 5.556651 -1.913816
C 75.397189 2.088965 -1.892869
C 74.105473 2.331737 -2.500727
C 73.197160 1.607683 -1.856890
C 73.863845 0.866452 -0.804790
N 75.192142 1.193121 -0.879609
H 72.435803 -1.145733 2.669487
H 74.416983 -2.493581 3.936108
H 75.992435 -0.739925 0.448783
H 75.597465 -4.596264 1.011699
H 77.344450 -4.824427 0.699529
H 76.299681 -6.209412 1.008601
H 76.601514 -7.160412 3.104445
H 76.786594 -7.162366 6.790864
H 76.456945 -8.135888 5.359120
H 78.139181 -7.743839 5.790408
H 77.549085 -4.800704 6.566821
H 76.803064 -1.650362 5.196586
H 77.677009 -2.480991 6.478213
H 78.555795 -1.973873 5.033142
H 79.644140 -3.557492 2.712567
H 81.404823 -2.208912 1.423477
H 81.112619 2.759717 -0.912734
H 79.132987 4.126973 -2.158868
H 77.563902 0.497448 -0.713506
H 77.247023 1.524698 -6.125915
H 76.223551 1.094781 -4.759784
H 77.974417 1.391182 -4.527635
H 77.009501 3.705043 -6.879150
H 76.237567 5.896911 -7.760126
H 77.584422 6.760765 -6.976523
H 75.897672 7.236498 -6.665878
H 76.079364 6.952135 -4.223088
H 76.816620 5.360885 -1.236792
H 75.831508 6.643144 -1.936947
H 75.062758 5.115969 -1.508701
H 73.909291 2.984345 -3.332786
H 72.149001 1.590515 -2.092529
