650

C 95.459525 -0.030215 -0.026835
C 96.184713 -1.408985 0.016348
C 95.567069 -2.634882 0.109976
C 96.588993 -3.617784 0.081120
C 97.797374 -2.957991 -0.029373
N 97.540329 -1.610450 -0.037098
C 99.231096 -3.628074 -0.151099
C 99.283175 -5.113957 -0.298586
C 99.212534 -5.706214 -1.580743
C 99.102365 -4.860294 -2.822532
C 99.250903 -7.105415 -1.700052
C 99.365433 -7.924458 -0.571717
C 99.369583 -9.415880 -0.714125
C 99.418976 -7.333686 0.695163
C 99.384470 -5.937681 0.846839
C 99.454112 -5.340999 2.228432
C 100.357359 -2.863491 -0.148094
C 101.670268 -3.452922 -0.308851
C 102.571747 -2.478954 -0.293098
N 100.546935 -1.511075 -0.022590
C 101.884042 -1.215874 -0.104634
C 102.555719 -0.034814 -0.037901
C 101.783713 1.333128 0.211518
C 102.354119 2.523432 0.620769
C 101.326661 3.495423 0.679086
C 100.152024 2.871725 0.317265
N 100.432966 1.547944 0.067172
C 98.724601 3.563420 0.212568
C 98.667152 5.054559 0.206655
C 98.802326 5.764419 -1.008500
C 98.998510 5.038283 -2.313754
C 98.742854 7.168051 -1.001165
C 98.561414 7.877647 0.190549
C 98.457574 9.372321 0.179025
C 98.417457 7.169595 1.388485
C 98.478040 5.766425 1.414259
C 98.312145 5.043995 2.725642
C 97.605211 2.798199 0.120552
C 96.275878 3.374027 0.016279
C 95.394074 2.381411 -0.042403
C 96.124730 1.139100 0.014179
N 97.448552 1.439812 0.103288
H 94.378466 -0.029383 -0.101623
H 94.503764 -2.803041 0.179783
H 96.458214 -4.688427 0.121972
H 98.245791 -0.877366 -0.072048
H 98.200997 -4.240794 -2.791056
H 99.034083 -5.482017 -3.722012
H 99.985619 -4.224451 -2.935197
H 99.192371 -7.555803 -2.687787
H 98.344974 -9.798509 -0.680452
H 99.828246 -9.717175 -1.661679
H 99.948525 -9.884388 0.088702
H 99.490290 -7.962613 1.578977
H 98.552902 -4.758573 2.443163
H 99.524790 -6.120868 2.994576
H 100.338976 -4.705585 2.331876
H 101.886754 -4.499379 -0.429962
H 103.630777 -2.629290 -0.394793
H 103.397364 2.685599 0.844736
H 101.431921 4.535191 0.951212
H 99.738358 0.838709 -0.155148
H 99.082353 5.740846 -3.150200
H 99.920851 4.449649 -2.294551
H 98.145658 4.385368 -2.524099
H 98.835699 7.708029 -1.940079
H 98.900799 9.799436 1.084127
H 97.407354 9.673994 0.123562
H 98.991020 9.798414 -0.676607
H 98.253571 7.711608 2.316424
H 98.294521 5.747518 3.565467
H 97.368924 4.489795 2.742615
H 99.146746 4.359349 2.903384
H 96.042320 4.423395 -0.006840
H 94.326940 2.480915 -0.121069
C 232.052559 -0.038844 -0.026616
C 231.327371 1.340339 -0.053569
C 231.945015 2.569410 -0.022373
C 230.923091 3.549575 -0.101151
C 229.714710 2.885019 -0.177965
N 229.971755 1.538827 -0.117186
C 228.280989 3.548048 -0.333593
C 228.228909 5.024514 -0.556414
C 228.299550 5.550835 -1.867017
C 228.409720 4.642891 -3.064205
C 228.261181 6.942164 -2.057291
C 228.146652 7.817499 -0.972046
C 228.142501 9.299755 -1.190075
C 228.093109 7.291885 0.323226
C 228.127614 5.905393 0.545662
C 228.057972 5.379707 1.955798
C 227.154725 2.784606 -0.291729
C 225.841816 3.365104 -0.482238
C 224.940337 2.393196 -0.417000
N 226.965149 1.440317 -0.097646
C 225.628042 1.141328 -0.164579
C 224.956365 -0.034814 -0.037901
C 225.728371 -1.388309 0.280726
C 225.157965 -2.556273 0.749950
C 226.185424 -3.524043 0.857595
C 227.360060 -2.919543 0.464541
N 227.079118 -1.610184 0.147485
C 228.787483 -3.615666 0.395137
C 228.844932 -5.105177 0.465023
C 228.709758 -5.875884 -0.712479
C 228.513574 -5.217030 -2.052955
C 228.769230 -7.277329 -0.633810
C 228.950670 -7.925435 0.592432
C 229.054510 -9.418762 0.656895
C 229.094627 -7.157409 1.752830
C 229.034044 -5.754743 1.707250
C 229.199939 -4.966591 2.980218
C 229.906873 -2.856111 0.264344
C 231.236207 -3.436494 0.189475
C 232.118010 -2.448143 0.080415
C 231.387355 -1.204563 0.073780
N 230.063532 -1.500356 0.178058
H 233.133618 -0.043476 -0.101265
H 233.008321 2.740900 0.038797
H 231.053870 4.620911 -0.114770
H 229.266293 0.804914 -0.114829
H 229.311087 4.025792 -3.001280
H 228.478002 5.218091 -3.994122
H 227.526465 4.002143 -3.144404
H 228.319713 7.341764 -3.066642
H 229.167110 9.683602 -1.175895
H 227.683838 9.552499 -2.151720
H 227.563559 9.808464 -0.412100
H 228.021795 7.964922 1.173930
H 228.959183 4.808948 2.199855
H 227.987294 6.197510 2.681312
H 227.173108 4.750373 2.091405
H 225.625330 4.404053 -0.656382
H 223.881307 2.538169 -0.526205
H 224.114720 -2.706847 0.981870
H 226.080163 -4.548636 1.182220
H 227.773726 -0.913167 -0.110596
H 228.429732 -5.961201 -2.852610
H 227.591233 -4.628182 -2.063696
H 229.366427 -4.575652 -2.296214
H 228.676385 -7.864332 -1.544064
H 228.611285 -9.799321 1.582536
H 230.104730 -9.722864 0.616837
H 228.521064 -9.887795 -0.175974
H 229.258513 -7.651555 2.707119
H 229.217563 -5.626518 3.854716
H 230.143160 -4.412245 2.969000
H 228.365338 -4.273795 3.122931
H 231.469764 -4.485680 0.219724
H 233.185144 -2.551518 0.006909
C 104.883986 -0.020123 -0.027626
C 106.342213 -0.041960 -0.045499
C 107.476141 -0.062714 -0.046990
C 108.837523 -0.075303 -0.049181
C 110.111741 -0.064997 -0.053946
C 111.300204 -0.046199 -0.060102
C 112.652565 -0.021414 -0.044234
C 113.752832 -0.020123 -0.027626
C 123.009191 -0.020123 -0.027626
C 124.467418 -0.041960 -0.045499
C 125.601346 -0.062714 -0.046990
C 126.962727 -0.075303 -0.049181
C 128.236946 -0.064997 -0.053946
C 129.425409 -0.046199 -0.060102
C 130.777769 -0.021414 -0.044234
C 131.878037 -0.020123 -0.027626
C 141.134396 -0.020123 -0.027626
C 142.592622 -0.041960 -0.045499
C 143.726551 -0.062714 -0.046990
C 145.087932 -0.075303 -0.049181
C 146.362151 -0.064997 -0.053946
C 147.550613 -0.046199 -0.060102
C 148.902974 -0.021414 -0.044234
C 150.003242 -0.020123 -0.027626
C 159.259601 -0.020123 -0.027626
C 160.717827 -0.041960 -0.045499
C 161.851755 -0.062714 -0.046990
C 163.213137 -0.075303 -0.049181
C 164.487356 -0.064997 -0.053946
C 165.675818 -0.046199 -0.060102
C 167.028179 -0.021414 -0.044234
C 168.128446 -0.020123 -0.027626
C 177.384806 -0.020123 -0.027626
C 178.843032 -0.041960 -0.045499
C 179.976960 -0.062714 -0.046990
C 181.338342 -0.075303 -0.049181
C 182.612561 -0.064997 -0.053946
C 183.801023 -0.046199 -0.060102
C 185.153384 -0.021414 -0.044234
C 186.253651 -0.020123 -0.027626
C 195.510011 -0.020123 -0.027626
C 196.968237 -0.041960 -0.045499
C 198.102165 -0.062714 -0.046990
C 199.463547 -0.075303 -0.049181
C 200.737766 -0.064997 -0.053946
C 201.926228 -0.046199 -0.060102
C 203.278589 -0.021414 -0.044234
C 204.378856 -0.020123 -0.027626
C 213.635216 -0.020123 -0.027626
C 215.093442 -0.041960 -0.045499
C 216.227370 -0.062714 -0.046990
C 217.588752 -0.075303 -0.049181
C 218.862971 -0.064997 -0.053946
C 220.051433 -0.046199 -0.060102
C 221.403794 -0.021414 -0.044234
C 222.504061 -0.020123 -0.027626
C 114.854704 0.014299 0.016289
C 115.643092 -0.770698 1.146299
C 115.115584 -1.268407 2.320593
C 116.151097 -1.971426 2.986232
C 117.282627 -1.870593 2.205744
N 116.981125 -1.081178 1.123398
C 118.681693 -2.561987 2.485952
C 118.689063 -3.794028 3.329426
C 118.429276 -5.054996 2.744066
C 118.146774 -5.183812 1.269742
C 118.448835 -6.208856 3.545630
C 118.711878 -6.132491 4.917271
C 118.773285 -7.377120 5.748574
C 118.978869 -4.884112 5.489207
C 118.960404 -3.711332 4.715378
C 119.260052 -2.389335 5.373152
C 119.814277 -2.063434 1.922184
C 121.106087 -2.690294 2.113799
C 122.014892 -1.991218 1.443686
N 120.020422 -0.980189 1.112340
C 121.348141 -0.883674 0.788146
C 122.015041 0.014299 0.016289
C 121.226601 1.202864 -0.675395
C 121.751098 2.417338 -1.068767
C 120.715946 3.135499 -1.718973
C 119.586692 2.344213 -1.690667
N 119.890197 1.200372 -0.994592
C 118.187719 2.677346 -2.359528
C 118.181929 3.624772 -3.513604
C 118.451457 3.153340 -4.819291
C 118.733601 1.695806 -5.078210
C 118.454662 4.056582 -5.895258
C 118.184603 5.415418 -5.699698
C 118.224636 6.370169 -6.854028
C 117.932145 5.879072 -4.404295
C 117.923447 5.000613 -3.307741
C 117.637018 5.540625 -1.930774
C 117.055677 2.072939 -1.909827
C 115.763961 2.315711 -2.517684
C 114.855648 1.591657 -1.873847
C 115.522333 0.850426 -0.821747
N 116.850630 1.177095 -0.896566
H 114.094291 -1.161759 2.652529
H 116.075471 -2.509607 3.919150
H 117.650923 -0.755951 0.431826
H 117.255953 -4.612290 0.994741
H 119.002938 -4.840453 0.682571
H 117.958169 -6.225438 0.991644
H 118.260002 -7.176438 3.087488
H 118.445082 -7.178392 6.773906
H 118.115433 -8.151914 5.342163
H 119.797669 -7.759865 5.773450
H 119.207573 -4.816730 6.549864
H 118.461552 -1.666388 5.179628
H 119.335497 -2.497017 6.461255
H 120.214283 -1.989899 5.016185
H 121.302628 -3.573518 2.695609
H 123.063311 -2.224938 1.406520
H 122.771107 2.743691 -0.929691
H 120.791475 4.110947 -2.175826
H 119.222390 0.481422 -0.730464
H 118.905511 1.508671 -6.142873
H 117.882039 1.078755 -4.776741
H 119.632905 1.375156 -4.544592
H 118.667989 3.689017 -6.896107
H 117.896055 5.880885 -7.777084
H 119.242910 6.744739 -6.993481
H 117.556160 7.220472 -6.682836
H 117.737851 6.936109 -4.240046
H 118.475108 5.344859 -1.253750
H 117.489996 6.627118 -1.953904
H 116.721246 5.099943 -1.525659
H 115.567779 2.968319 -3.349744
H 113.807489 1.574489 -2.109487
C 132.979909 0.014299 0.016289
C 133.768297 -0.770698 1.146299
C 133.240789 -1.268407 2.320593
C 134.276302 -1.971426 2.986232
C 135.407832 -1.870593 2.205744
N 135.106330 -1.081178 1.123398
C 136.806898 -2.561987 2.485952
C 136.814268 -3.794028 3.329426
C 136.554481 -5.054996 2.744066
C 136.271979 -5.183812 1.269742
C 136.574040 -6.208856 3.545630
C 136.837083 -6.132491 4.917271
C 136.898489 -7.377120 5.748574
C 137.104073 -4.884112 5.489207
C 137.085609 -3.711332 4.715378
C 137.385257 -2.389335 5.373152
C 137.939482 -2.063434 1.922184
C 139.231292 -2.690294 2.113799
C 140.140097 -1.991218 1.443686
N 138.145627 -0.980189 1.112340
C 139.473346 -0.883674 0.788146
C 140.140246 0.014299 0.016289
C 139.351806 1.202864 -0.675395
C 139.876303 2.417338 -1.068767
C 138.841151 3.135499 -1.718973
C 137.711897 2.344213 -1.690667
N 138.015402 1.200372 -0.994592
C 136.312923 2.677346 -2.359528
C 136.307134 3.624772 -3.513604
C 136.576662 3.153340 -4.819291
C 136.858806 1.695806 -5.078210
C 136.579867 4.056582 -5.895258
C 136.309808 5.415418 -5.699698
C 136.349841 6.370169 -6.854028
C 136.057350 5.879072 -4.404295
C 136.048652 5.000613 -3.307741
C 135.762223 5.540625 -1.930774
C 135.180882 2.072939 -1.909827
C 133.889166 2.315711 -2.517684
C 132.980853 1.591657 -1.873847
C 133.647538 0.850426 -0.821747
N 134.975834 1.177095 -0.896566
H 132.219496 -1.161759 2.652529
H 134.200675 -2.509607 3.919150
H 135.776128 -0.755951 0.431826
H 135.381158 -4.612290 0.994741
H 137.128143 -4.840453 0.682571
H 136.083374 -6.225438 0.991644
H 136.385207 -7.176438 3.087488
H 136.570287 -7.178392 6.773906
H 136.240638 -8.151914 5.342163
H 137.922874 -7.759865 5.773450
H 137.332778 -4.816730 6.549864
H 136.586757 -1.666388 5.179628
H 137.460702 -2.497017 6.461255
H 138.339488 -1.989899 5.016185
H 139.427833 -3.573518 2.695609
H 141.188516 -2.224938 1.406520
H 140.896311 2.743691 -0.929691
H 138.916680 4.110947 -2.175826
H 137.347595 0.481422 -0.730464
H 137.030716 1.508671 -6.142873
H 136.007244 1.078755 -4.776741
H 137.758110 1.375156 -4.544592
H 136.793194 3.689017 -6.896107
H 136.021259 5.880885 -7.777084
H 137.368114 6.744739 -6.993481
H 135.681365 7.220472 -6.682836
H 135.863056 6.936109 -4.240046
H 136.600313 5.344859 -1.253750
H 135.615201 6.627118 -1.953904
H 134.846451 5.099943 -1.525659
H 133.692984 2.968319 -3.349744
H 131.932693 1.574489 -2.109487
C 151.105113 0.014299 0.016289
C 151.893502 -0.770698 1.146299
C 151.365994 -1.268407 2.320593
C 152.401507 -1.971426 2.986232
C 153.533036 -1.870593 2.205744
N 153.231535 -1.081178 1.123398
C 154.932102 -2.561987 2.485952
C 154.939472 -3.794028 3.329426
C 154.679686 -5.054996 2.744066
C 154.397184 -5.183812 1.269742
C 154.699245 -6.208856 3.545630
C 154.962288 -6.132491 4.917271
C 155.023694 -7.377120 5.748574
C 155.229278 -4.884112 5.489207
C 155.210814 -3.711332 4.715378
C 155.510462 -2.389335 5.373152
C 156.064687 -2.063434 1.922184
C 157.356497 -2.690294 2.113799
C 158.265302 -1.991218 1.443686
N 156.270831 -0.980189 1.112340
C 157.598551 -0.883674 0.788146
C 158.265450 0.014299 0.016289
C 157.477011 1.202864 -0.675395
C 158.001508 2.417338 -1.068767
C 156.966356 3.135499 -1.718973
C 155.837102 2.344213 -1.690667
N 156.140607 1.200372 -0.994592
C 154.438128 2.677346 -2.359528
C 154.432339 3.624772 -3.513604
C 154.701867 3.153340 -4.819291
C 154.984011 1.695806 -5.078210
C 154.705072 4.056582 -5.895258
C 154.435013 5.415418 -5.699698
C 154.475046 6.370169 -6.854028
C 154.182555 5.879072 -4.404295
C 154.173857 5.000613 -3.307741
C 153.887428 5.540625 -1.930774
C 153.306087 2.072939 -1.909827
C 152.014371 2.315711 -2.517684
C 151.106058 1.591657 -1.873847
C 151.772743 0.850426 -0.821747
N 153.101039 1.177095 -0.896566
H 150.344701 -1.161759 2.652529
H 152.325880 -2.509607 3.919150
H 153.901332 -0.755951 0.431826
H 153.506363 -4.612290 0.994741
H 155.253348 -4.840453 0.682571
H 154.208578 -6.225438 0.991644
H 154.510412 -7.176438 3.087488
H 154.695492 -7.178392 6.773906
H 154.365843 -8.151914 5.342163
H 156.048078 -7.759865 5.773450
H 155.457983 -4.816730 6.549864
H 154.711962 -1.666388 5.179628
H 155.585907 -2.497017 6.461255
H 156.464693 -1.989899 5.016185
H 157.553038 -3.573518 2.695609
H 159.313721 -2.224938 1.406520
H 159.021516 2.743691 -0.929691
H 157.041885 4.110947 -2.175826
H 155.472800 0.481422 -0.730464
H 155.155921 1.508671 -6.142873
H 154.132448 1.078755 -4.776741
H 155.883315 1.375156 -4.544592
H 154.918399 3.689017 -6.896107
H 154.146464 5.880885 -7.777084
H 155.493319 6.744739 -6.993481
H 153.806570 7.220472 -6.682836
H 153.988261 6.936109 -4.240046
H 154.725518 5.344859 -1.253750
H 153.740406 6.627118 -1.953904
H 152.971655 5.099943 -1.525659
H 151.818189 2.968319 -3.349744
H 150.057898 1.574489 -2.109487
C 169.230318 0.014299 0.016289
C 170.018707 -0.770698 1.146299
C 169.491199 -1.268407 2.320593
C 170.526712 -1.971426 2.986232
C 171.658241 -1.870593 2.205744
N 171.356739 -1.081178 1.123398
C 173.057307 -2.561987 2.485952
C 173.064677 -3.794028 3.329426
C 172.804891 -5.054996 2.744066
C 172.522388 -5.183812 1.269742
C 172.824450 -6.208856 3.545630
C 173.087493 -6.132491 4.917271
C 173.148899 -7.377120 5.748574
C 173.354483 -4.884112 5.489207
C 173.336019 -3.711332 4.715378
C 173.635667 -2.389335 5.373152
C 174.189892 -2.063434 1.922184
C 175.481702 -2.690294 2.113799
C 176.390507 -1.991218 1.443686
N 174.396036 -0.980189 1.112340
C 175.723756 -0.883674 0.788146
C 176.390655 0.014299 0.016289
C 175.602215 1.202864 -0.675395
C 176.126713 2.417338 -1.068767
C 175.091561 3.135499 -1.718973
C 173.962307 2.344213 -1.690667
N 174.265812 1.200372 -0.994592
C 172.563333 2.677346 -2.359528
C 172.557544 3.624772 -3.513604
C 172.827072 3.153340 -4.819291
C 173.109216 1.695806 -5.078210
C 172.830277 4.056582 -5.895258
C 172.560218 5.415418 -5.699698
C 172.600251 6.370169 -6.854028
C 172.307760 5.879072 -4.404295
C 172.299062 5.000613 -3.307741
C 172.012633 5.540625 -1.930774
C 171.431291 2.072939 -1.909827
C 170.139576 2.315711 -2.517684
C 169.231263 1.591657 -1.873847
C 169.897948 0.850426 -0.821747
N 171.226244 1.177095 -0.896566
H 168.469906 -1.161759 2.652529
H 170.451085 -2.509607 3.919150
H 172.026537 -0.755951 0.431826
H 171.631568 -4.612290 0.994741
H 173.378553 -4.840453 0.682571
H 172.333783 -6.225438 0.991644
H 172.635617 -7.176438 3.087488
H 172.820696 -7.178392 6.773906
H 172.491048 -8.151914 5.342163
H 174.173283 -7.759865 5.773450
H 173.583188 -4.816730 6.549864
H 172.837167 -1.666388 5.179628
H 173.711112 -2.497017 6.461255
H 174.589898 -1.989899 5.016185
H 175.678243 -3.573518 2.695609
H 177.438926 -2.224938 1.406520
H 177.146721 2.743691 -0.929691
H 175.167090 4.110947 -2.175826
H 173.598005 0.481422 -0.730464
H 173.281126 1.508671 -6.142873
H 172.257653 1.078755 -4.776741
H 174.008520 1.375156 -4.544592
H 173.043604 3.689017 -6.896107
H 172.271669 5.880885 -7.777084
H 173.618524 6.744739 -6.993481
H 171.931775 7.220472 -6.682836
H 172.113466 6.936109 -4.240046
H 172.850723 5.344859 -1.253750
H 171.865611 6.627118 -1.953904
H 171.096860 5.099943 -1.525659
H 169.943393 2.968319 -3.349744
H 168.183103 1.574489 -2.109487
C 187.355523 0.014299 0.016289
C 188.143912 -0.770698 1.146299
C 187.616404 -1.268407 2.320593
C 188.651916 -1.971426 2.986232
C 189.783446 -1.870593 2.205744
N 189.481944 -1.081178 1.123398
C 191.182512 -2.561987 2.485952
C 191.189882 -3.794028 3.329426
C 190.930096 -5.054996 2.744066
C 190.647593 -5.183812 1.269742
C 190.949655 -6.208856 3.545630
C 191.212698 -6.132491 4.917271
C 191.274104 -7.377120 5.748574
C 191.479688 -4.884112 5.489207
C 191.461224 -3.711332 4.715378
C 191.760872 -2.389335 5.373152
C 192.315097 -2.063434 1.922184
C 193.606907 -2.690294 2.113799
C 194.515711 -1.991218 1.443686
N 192.521241 -0.980189 1.112340
C 193.848961 -0.883674 0.788146
C 194.515860 0.014299 0.016289
C 193.727420 1.202864 -0.675395
C 194.251918 2.417338 -1.068767
C 193.216766 3.135499 -1.718973
C 192.087511 2.344213 -1.690667
N 192.391017 1.200372 -0.994592
C 190.688538 2.677346 -2.359528
C 190.682749 3.624772 -3.513604
C 190.952277 3.153340 -4.819291
C 191.234421 1.695806 -5.078210
C 190.955482 4.056582 -5.895258
C 190.685423 5.415418 -5.699698
C 190.725456 6.370169 -6.854028
C 190.432965 5.879072 -4.404295
C 190.424267 5.000613 -3.307741
C 190.137838 5.540625 -1.930774
C 189.556496 2.072939 -1.909827
C 188.264780 2.315711 -2.517684
C 187.356468 1.591657 -1.873847
C 188.023153 0.850426 -0.821747
N 189.351449 1.177095 -0.896566
H 186.595110 -1.161759 2.652529
H 188.576290 -2.509607 3.919150
H 190.151742 -0.755951 0.431826
H 189.756773 -4.612290 0.994741
H 191.503757 -4.840453 0.682571
H 190.458988 -6.225438 0.991644
H 190.760822 -7.176438 3.087488
H 190.945901 -7.178392 6.773906
H 190.616252 -8.151914 5.342163
H 192.298488 -7.759865 5.773450
H 191.708393 -4.816730 6.549864
H 190.962372 -1.666388 5.179628
H 191.836316 -2.497017 6.461255
H 192.715103 -1.989899 5.016185
H 193.803448 -3.573518 2.695609
H 195.564131 -2.224938 1.406520
H 195.271926 2.743691 -0.929691
H 193.292295 4.110947 -2.175826
H 191.723209 0.481422 -0.730464
H 191.406331 1.508671 -6.142873
H 190.382858 1.078755 -4.776741
H 192.133725 1.375156 -4.544592
H 191.168809 3.689017 -6.896107
H 190.396874 5.880885 -7.777084
H 191.743729 6.744739 -6.993481
H 190.056980 7.220472 -6.682836
H 190.238671 6.936109 -4.240046
H 190.975928 5.344859 -1.253750
H 189.990816 6.627118 -1.953904
H 189.222065 5.099943 -1.525659
H 188.068598 2.968319 -3.349744
H 186.308308 1.574489 -2.109487
C 205.480728 0.014299 0.016289
C 206.269117 -0.770698 1.146299
C 205.741609 -1.268407 2.320593
C 206.777121 -1.971426 2.986232
C 207.908651 -1.870593 2.205744
N 207.607149 -1.081178 1.123398
C 209.307717 -2.561987 2.485952
C 209.315087 -3.794028 3.329426
C 209.055300 -5.054996 2.744066
C 208.772798 -5.183812 1.269742
C 209.074860 -6.208856 3.545630
C 209.337903 -6.132491 4.917271
C 209.399309 -7.377120 5.748574
C 209.604893 -4.884112 5.489207
C 209.586428 -3.711332 4.715378
C 209.886077 -2.389335 5.373152
C 210.440301 -2.063434 1.922184
C 211.732112 -2.690294 2.113799
C 212.640916 -1.991218 1.443686
N 210.646446 -0.980189 1.112340
C 211.974166 -0.883674 0.788146
C 212.641065 0.014299 0.016289
C 211.852625 1.202864 -0.675395
C 212.377123 2.417338 -1.068767
C 211.341971 3.135499 -1.718973
C 210.212716 2.344213 -1.690667
N 210.516222 1.200372 -0.994592
C 208.813743 2.677346 -2.359528
C 208.807953 3.624772 -3.513604
C 209.077481 3.153340 -4.819291
C 209.359626 1.695806 -5.078210
C 209.080687 4.056582 -5.895258
C 208.810628 5.415418 -5.699698
C 208.850661 6.370169 -6.854028
C 208.558170 5.879072 -4.404295
C 208.549471 5.000613 -3.307741
C 208.263043 5.540625 -1.930774
C 207.681701 2.072939 -1.909827
C 206.389985 2.315711 -2.517684
C 205.481673 1.591657 -1.873847
C 206.148358 0.850426 -0.821747
N 207.476654 1.177095 -0.896566
H 204.720315 -1.161759 2.652529
H 206.701495 -2.509607 3.919150
H 208.276947 -0.755951 0.431826
H 207.881977 -4.612290 0.994741
H 209.628962 -4.840453 0.682571
H 208.584193 -6.225438 0.991644
H 208.886027 -7.176438 3.087488
H 209.071106 -7.178392 6.773906
H 208.741457 -8.151914 5.342163
H 210.423693 -7.759865 5.773450
H 209.833598 -4.816730 6.549864
H 209.087577 -1.666388 5.179628
H 209.961521 -2.497017 6.461255
H 210.840308 -1.989899 5.016185
H 211.928652 -3.573518 2.695609
H 213.689336 -2.224938 1.406520
H 213.397131 2.743691 -0.929691
H 211.417500 4.110947 -2.175826
H 209.848414 0.481422 -0.730464
H 209.531535 1.508671 -6.142873
H 208.508063 1.078755 -4.776741
H 210.258930 1.375156 -4.544592
H 209.294014 3.689017 -6.896107
H 208.522079 5.880885 -7.777084
H 209.868934 6.744739 -6.993481
H 208.182184 7.220472 -6.682836
H 208.363876 6.936109 -4.240046
H 209.101133 5.344859 -1.253750
H 208.116021 6.627118 -1.953904
H 207.347270 5.099943 -1.525659
H 206.193803 2.968319 -3.349744
H 204.433513 1.574489 -2.109487
