 xtb: 6.5.1 (b24c23e)
          07292216233D

166197  0     0  0            999 V2000
   16.5585   -0.0177   -0.0158 Fe  0  0  0  0  0  0  0  0  0  0  0  0
   13.1456   -0.0563   -0.0544 C   0  0  0  0  0  0  0  0  0  0  0  0
   13.8131   -0.9080   -0.9106 C   0  0  0  0  0  0  0  0  0  0  0  0
   13.1553   -1.8064   -1.8141 C   0  0  0  0  0  0  0  0  0  0  0  0
   14.1293   -2.4695   -2.4806 C   0  0  0  0  0  0  0  0  0  0  0  0
   15.3791   -1.9744   -1.9824 C   0  0  0  0  0  0  0  0  0  0  0  0
   15.1733   -1.0206   -1.0235 N   0  0  0  0  0  0  0  0  0  0  0  0
   16.6098   -2.4170   -2.4259 C   0  0  0  0  0  0  0  0  0  0  0  0
   17.8186   -1.9514   -1.9564 C   0  0  0  0  0  0  0  0  0  0  0  0
   19.0866   -2.4224   -2.4269 C   0  0  0  0  0  0  0  0  0  0  0  0
   20.0331   -1.7394   -1.7398 C   0  0  0  0  0  0  0  0  0  0  0  0
   17.9906   -0.9893   -0.9901 N   0  0  0  0  0  0  0  0  0  0  0  0
   19.3392   -0.8547   -0.8536 C   0  0  0  0  0  0  0  0  0  0  0  0
   19.9916    0.0211    0.0233 C   0  0  0  0  0  0  0  0  0  0  0  0
   19.3004    0.8815    0.8851 C   0  0  0  0  0  0  0  0  0  0  0  0
   19.9538    1.7810    1.7871 C   0  0  0  0  0  0  0  0  0  0  0  0
   18.9766    2.4431    2.4515 C   0  0  0  0  0  0  0  0  0  0  0  0
   17.7305    1.9443    1.9518 C   0  0  0  0  0  0  0  0  0  0  0  0
   17.9461    0.9859    0.9906 N   0  0  0  0  0  0  0  0  0  0  0  0
   16.5011    2.3831    2.3928 C   0  0  0  0  0  0  0  0  0  0  0  0
   15.2909    1.9127    1.9219 C   0  0  0  0  0  0  0  0  0  0  0  0
   14.0192    2.3794    2.3912 C   0  0  0  0  0  0  0  0  0  0  0  0
   13.0759    1.6938    1.7037 C   0  0  0  0  0  0  0  0  0  0  0  0
   13.7741    0.8103    0.8162 C   0  0  0  0  0  0  0  0  0  0  0  0
   15.1284    0.9538    0.9596 N   0  0  0  0  0  0  0  0  0  0  0  0
   12.0616   -0.0687   -0.0666 H   0  0  0  0  0  0  0  0  0  0  0  0
   12.0851   -1.9007   -1.9090 H   0  0  0  0  0  0  0  0  0  0  0  0
   14.0333   -3.2271   -3.2423 H   0  0  0  0  0  0  0  0  0  0  0  0
   16.6261   -3.1818   -3.1944 H   0  0  0  0  0  0  0  0  0  0  0  0
   19.2147   -3.1782   -3.1855 H   0  0  0  0  0  0  0  0  0  0  0  0
   21.1063   -1.8141   -1.8130 H   0  0  0  0  0  0  0  0  0  0  0  0
   21.0231    1.8790    1.8851 H   0  0  0  0  0  0  0  0  0  0  0  0
   19.0703    3.2017    3.2122 H   0  0  0  0  0  0  0  0  0  0  0  0
   16.4825    3.1484    3.1607 H   0  0  0  0  0  0  0  0  0  0  0  0
   13.8887    3.1349    3.1498 H   0  0  0  0  0  0  0  0  0  0  0  0
   12.0019    1.7636    1.7745 H   0  0  0  0  0  0  0  0  0  0  0  0
   72.3845    0.0006   -0.0009 Fe  0  0  0  0  0  0  0  0  0  0  0  0
   75.7976    0.0591   -0.0137 C   0  0  0  0  0  0  0  0  0  0  0  0
   75.1283    1.2641   -0.0752 C   0  0  0  0  0  0  0  0  0  0  0  0
   75.7843    2.5375   -0.1395 C   0  0  0  0  0  0  0  0  0  0  0  0
   74.8092    3.4755   -0.1815 C   0  0  0  0  0  0  0  0  0  0  0  0
   73.5601    2.7729   -0.1429 C   0  0  0  0  0  0  0  0  0  0  0  0
   73.7679    1.4218   -0.0806 N   0  0  0  0  0  0  0  0  0  0  0  0
   72.3289    3.3975   -0.1643 C   0  0  0  0  0  0  0  0  0  0  0  0
   71.1211    2.7351   -0.1265 C   0  0  0  0  0  0  0  0  0  0  0  0
   69.8523    3.3989   -0.1462 C   0  0  0  0  0  0  0  0  0  0  0  0
   68.9070    2.4301   -0.1000 C   0  0  0  0  0  0  0  0  0  0  0  0
   70.9511    1.3727   -0.0690 N   0  0  0  0  0  0  0  0  0  0  0  0
   69.6021    1.1794   -0.0532 C   0  0  0  0  0  0  0  0  0  0  0  0
   68.9519   -0.0595   -0.0134 C   0  0  0  0  0  0  0  0  0  0  0  0
   69.6443   -1.2750    0.0306 C   0  0  0  0  0  0  0  0  0  0  0  0
   68.9929   -2.5487    0.0816 C   0  0  0  0  0  0  0  0  0  0  0  0
   69.9713   -3.4840    0.1329 C   0  0  0  0  0  0  0  0  0  0  0  0
   71.2163   -2.7768    0.1116 C   0  0  0  0  0  0  0  0  0  0  0  0
   70.9993   -1.4214    0.0462 N   0  0  0  0  0  0  0  0  0  0  0  0
   72.4465   -3.3966    0.1522 C   0  0  0  0  0  0  0  0  0  0  0  0
   73.6554   -2.7300    0.1275 C   0  0  0  0  0  0  0  0  0  0  0  0
   74.9281   -3.3889    0.1667 C   0  0  0  0  0  0  0  0  0  0  0  0
   75.8701   -2.4179    0.1184 C   0  0  0  0  0  0  0  0  0  0  0  0
   75.1704   -1.1682    0.0508 C   0  0  0  0  0  0  0  0  0  0  0  0
   73.8163   -1.3729    0.0569 N   0  0  0  0  0  0  0  0  0  0  0  0
   76.8815    0.0778   -0.0146 H   0  0  0  0  0  0  0  0  0  0  0  0
   76.8544    2.6724   -0.1490 H   0  0  0  0  0  0  0  0  0  0  0  0
   74.9039    4.5487   -0.2333 H   0  0  0  0  0  0  0  0  0  0  0  0
   72.3110    4.4805   -0.2131 H   0  0  0  0  0  0  0  0  0  0  0  0
   69.7229    4.4687   -0.1899 H   0  0  0  0  0  0  0  0  0  0  0  0
   67.8337    2.5335   -0.0982 H   0  0  0  0  0  0  0  0  0  0  0  0
   67.9237   -2.6890    0.0798 H   0  0  0  0  0  0  0  0  0  0  0  0
   69.8789   -4.5574    0.1816 H   0  0  0  0  0  0  0  0  0  0  0  0
   72.4660   -4.4794    0.2054 H   0  0  0  0  0  0  0  0  0  0  0  0
   75.0601   -4.4579    0.2233 H   0  0  0  0  0  0  0  0  0  0  0  0
   76.9442   -2.5157    0.1268 H   0  0  0  0  0  0  0  0  0  0  0  0
   21.3921    0.0339    0.0374 C   0  0  0  0  0  0  0  0  0  0  0  0
   22.6185    0.0403    0.0419 C   0  0  0  0  0  0  0  0  0  0  0  0
   23.9581    0.0422    0.0438 C   0  0  0  0  0  0  0  0  0  0  0  0
   25.1909    0.0360    0.0388 C   0  0  0  0  0  0  0  0  0  0  0  0
   26.5254    0.0276    0.0314 C   0  0  0  0  0  0  0  0  0  0  0  0
   27.7583    0.0170    0.0217 C   0  0  0  0  0  0  0  0  0  0  0  0
   29.0973    0.0057    0.0114 C   0  0  0  0  0  0  0  0  0  0  0  0
   30.3240   -0.0045    0.0013 C   0  0  0  0  0  0  0  0  0  0  0  0
   40.0046   -0.0572   -0.0430 C   0  0  0  0  0  0  0  0  0  0  0  0
   41.2315   -0.0549   -0.0404 C   0  0  0  0  0  0  0  0  0  0  0  0
   42.5701   -0.0487   -0.0358 C   0  0  0  0  0  0  0  0  0  0  0  0
   43.8032   -0.0346   -0.0271 C   0  0  0  0  0  0  0  0  0  0  0  0
   45.1370   -0.0248   -0.0184 C   0  0  0  0  0  0  0  0  0  0  0  0
   46.3703   -0.0187   -0.0123 C   0  0  0  0  0  0  0  0  0  0  0  0
   47.7089   -0.0141   -0.0091 C   0  0  0  0  0  0  0  0  0  0  0  0
   48.9359   -0.0098   -0.0104 C   0  0  0  0  0  0  0  0  0  0  0  0
   58.6173   -0.0615   -0.0358 C   0  0  0  0  0  0  0  0  0  0  0  0
   59.8434   -0.0722   -0.0359 C   0  0  0  0  0  0  0  0  0  0  0  0
   61.1836   -0.0820   -0.0352 C   0  0  0  0  0  0  0  0  0  0  0  0
   62.4159   -0.0902   -0.0326 C   0  0  0  0  0  0  0  0  0  0  0  0
   63.7515   -0.0951   -0.0297 C   0  0  0  0  0  0  0  0  0  0  0  0
   64.9837   -0.0972   -0.0252 C   0  0  0  0  0  0  0  0  0  0  0  0
   66.3243   -0.0910   -0.0212 C   0  0  0  0  0  0  0  0  0  0  0  0
   67.5500   -0.0811   -0.0168 C   0  0  0  0  0  0  0  0  0  0  0  0
   35.1646   -0.0303   -0.0258 Fe  0  0  0  0  0  0  0  0  0  0  0  0
   31.7234   -0.0133   -0.0068 C   0  0  0  0  0  0  0  0  0  0  0  0
   32.4059    0.9008    0.8071 C   0  0  0  0  0  0  0  0  0  0  0  0
   31.7426    1.8480    1.6503 C   0  0  0  0  0  0  0  0  0  0  0  0
   32.7133    2.5560    2.2765 C   0  0  0  0  0  0  0  0  0  0  0  0
   33.9629    2.0355    1.8113 C   0  0  0  0  0  0  0  0  0  0  0  0
   33.7586    1.0202    0.9099 N   0  0  0  0  0  0  0  0  0  0  0  0
   35.1894    2.5081    2.2296 C   0  0  0  0  0  0  0  0  0  0  0  0
   36.4063    2.0227    1.7993 C   0  0  0  0  0  0  0  0  0  0  0  0
   37.6661    2.5300    2.2518 C   0  0  0  0  0  0  0  0  0  0  0  0
   38.6229    1.8115    1.6162 C   0  0  0  0  0  0  0  0  0  0  0  0
   36.5910    1.0049    0.8961 N   0  0  0  0  0  0  0  0  0  0  0  0
   37.9410    0.8712    0.7800 C   0  0  0  0  0  0  0  0  0  0  0  0
   38.6056   -0.0516   -0.0394 C   0  0  0  0  0  0  0  0  0  0  0  0
   37.9236   -0.9650   -0.8544 C   0  0  0  0  0  0  0  0  0  0  0  0
   38.5869   -1.9121   -1.6978 C   0  0  0  0  0  0  0  0  0  0  0  0
   37.6162   -2.6159   -2.3287 C   0  0  0  0  0  0  0  0  0  0  0  0
   36.3664   -2.0936   -1.8655 C   0  0  0  0  0  0  0  0  0  0  0  0
   36.5710   -1.0809   -0.9610 N   0  0  0  0  0  0  0  0  0  0  0  0
   35.1400   -2.5631   -2.2868 C   0  0  0  0  0  0  0  0  0  0  0  0
   33.9226   -2.0788   -1.8549 C   0  0  0  0  0  0  0  0  0  0  0  0
   32.6629   -2.5861   -2.3074 C   0  0  0  0  0  0  0  0  0  0  0  0
   31.7060   -1.8713   -1.6676 C   0  0  0  0  0  0  0  0  0  0  0  0
   32.3877   -0.9328   -0.8294 C   0  0  0  0  0  0  0  0  0  0  0  0
   33.7381   -1.0643   -0.9484 N   0  0  0  0  0  0  0  0  0  0  0  0
   30.6724    1.9443    1.7387 H   0  0  0  0  0  0  0  0  0  0  0  0
   32.6124    3.3586    2.9897 H   0  0  0  0  0  0  0  0  0  0  0  0
   35.1973    3.3191    2.9496 H   0  0  0  0  0  0  0  0  0  0  0  0
   37.7828    3.3316    2.9636 H   0  0  0  0  0  0  0  0  0  0  0  0
   39.6948    1.8966    1.6940 H   0  0  0  0  0  0  0  0  0  0  0  0
   39.6572   -2.0109   -1.7833 H   0  0  0  0  0  0  0  0  0  0  0  0
   37.7172   -3.4170   -3.0435 H   0  0  0  0  0  0  0  0  0  0  0  0
   35.1320   -3.3718   -3.0093 H   0  0  0  0  0  0  0  0  0  0  0  0
   32.5462   -3.3855   -3.0216 H   0  0  0  0  0  0  0  0  0  0  0  0
   30.6340   -1.9576   -1.7434 H   0  0  0  0  0  0  0  0  0  0  0  0
   53.7758   -0.0313   -0.0261 Fe  0  0  0  0  0  0  0  0  0  0  0  0
   50.3349   -0.0140   -0.0144 C   0  0  0  0  0  0  0  0  0  0  0  0
   51.0154    0.8993    0.8020 C   0  0  0  0  0  0  0  0  0  0  0  0
   50.3502    1.8442    1.6465 C   0  0  0  0  0  0  0  0  0  0  0  0
   51.3196    2.5529    2.2740 C   0  0  0  0  0  0  0  0  0  0  0  0
   52.5705    2.0356    1.8079 C   0  0  0  0  0  0  0  0  0  0  0  0
   52.3677    1.0201    0.9058 N   0  0  0  0  0  0  0  0  0  0  0  0
   53.7958    2.5136    2.2217 C   0  0  0  0  0  0  0  0  0  0  0  0
   55.0139    2.0333    1.7867 C   0  0  0  0  0  0  0  0  0  0  0  0
   56.2727    2.5501    2.2308 C   0  0  0  0  0  0  0  0  0  0  0  0
   57.2308    1.8330    1.5955 C   0  0  0  0  0  0  0  0  0  0  0  0
   55.1999    1.0120    0.8885 N   0  0  0  0  0  0  0  0  0  0  0  0
   56.5510    0.8831    0.7687 C   0  0  0  0  0  0  0  0  0  0  0  0
   57.2165   -0.0518   -0.0342 C   0  0  0  0  0  0  0  0  0  0  0  0
   56.5363   -0.9775   -0.8354 C   0  0  0  0  0  0  0  0  0  0  0  0
   57.2009   -1.9340   -1.6670 C   0  0  0  0  0  0  0  0  0  0  0  0
   56.2313   -2.6383   -2.2992 C   0  0  0  0  0  0  0  0  0  0  0  0
   54.9809   -2.1076   -1.8480 C   0  0  0  0  0  0  0  0  0  0  0  0
   55.1833   -1.0900   -0.9492 N   0  0  0  0  0  0  0  0  0  0  0  0
   53.7552   -2.5740   -2.2766 C   0  0  0  0  0  0  0  0  0  0  0  0
   52.5377   -2.0837   -1.8544 C   0  0  0  0  0  0  0  0  0  0  0  0
   51.2785   -2.5878   -2.3124 C   0  0  0  0  0  0  0  0  0  0  0  0
   50.3207   -1.8704   -1.6773 C   0  0  0  0  0  0  0  0  0  0  0  0
   51.0011   -0.9331   -0.8363 C   0  0  0  0  0  0  0  0  0  0  0  0
   52.3513   -1.0673   -0.9497 N   0  0  0  0  0  0  0  0  0  0  0  0
   49.2798    1.9388    1.7344 H   0  0  0  0  0  0  0  0  0  0  0  0
   51.2171    3.3544    2.9881 H   0  0  0  0  0  0  0  0  0  0  0  0
   53.8030    3.3259    2.9401 H   0  0  0  0  0  0  0  0  0  0  0  0
   56.3880    3.3564    2.9375 H   0  0  0  0  0  0  0  0  0  0  0  0
   58.3027    1.9237    1.6688 H   0  0  0  0  0  0  0  0  0  0  0  0
   58.2712   -2.0372   -1.7458 H   0  0  0  0  0  0  0  0  0  0  0  0
   56.3336   -3.4446   -3.0080 H   0  0  0  0  0  0  0  0  0  0  0  0
   53.7492   -3.3854   -2.9960 H   0  0  0  0  0  0  0  0  0  0  0  0
   51.1630   -3.3875   -3.0267 H   0  0  0  0  0  0  0  0  0  0  0  0
   49.2489   -1.9544   -1.7580 H   0  0  0  0  0  0  0  0  0  0  0  0
  2  3  4  0  0  0  0
  3  4  1  0  0  0  0
  4  5  2  0  0  0  0
  5  6  4  0  0  0  0
  1  7  1  0  0  0  0
  3  7  4  0  0  0  0
  6  7  4  0  0  0  0
  6  8  4  0  0  0  0
  8  9  4  0  0  0  0
  9 10  4  0  0  0  0
 10 11  2  0  0  0  0
  1 12  1  0  0  0  0
  9 12  4  0  0  0  0
 11 13  4  0  0  0  0
 12 13  4  0  0  0  0
 13 14  4  0  0  0  0
 14 15  4  0  0  0  0
 15 16  4  0  0  0  0
 16 17  2  0  0  0  0
 17 18  4  0  0  0  0
  1 19  1  0  0  0  0
 15 19  4  0  0  0  0
 18 19  4  0  0  0  0
 18 20  4  0  0  0  0
 20 21  4  0  0  0  0
 21 22  4  0  0  0  0
 22 23  2  0  0  0  0
  2 24  4  0  0  0  0
 23 24  1  0  0  0  0
  1 25  1  0  0  0  0
 21 25  4  0  0  0  0
 24 25  4  0  0  0  0
  2 26  1  0  0  0  0
  4 27  1  0  0  0  0
  5 28  1  0  0  0  0
  8 29  1  0  0  0  0
 10 30  1  0  0  0  0
 11 31  1  0  0  0  0
 16 32  1  0  0  0  0
 17 33  1  0  0  0  0
 20 34  1  0  0  0  0
 22 35  1  0  0  0  0
 23 36  1  0  0  0  0
 38 39  4  0  0  0  0
 39 40  1  0  0  0  0
 40 41  2  0  0  0  0
 41 42  4  0  0  0  0
 37 43  1  0  0  0  0
 39 43  4  0  0  0  0
 42 43  4  0  0  0  0
 42 44  4  0  0  0  0
 44 45  4  0  0  0  0
 45 46  4  0  0  0  0
 46 47  2  0  0  0  0
 37 48  1  0  0  0  0
 45 48  4  0  0  0  0
 47 49  4  0  0  0  0
 48 49  4  0  0  0  0
 49 50  4  0  0  0  0
 50 51  4  0  0  0  0
 51 52  4  0  0  0  0
 52 53  2  0  0  0  0
 53 54  4  0  0  0  0
 37 55  1  0  0  0  0
 51 55  4  0  0  0  0
 54 55  4  0  0  0  0
 54 56  4  0  0  0  0
 56 57  4  0  0  0  0
 57 58  4  0  0  0  0
 58 59  2  0  0  0  0
 38 60  4  0  0  0  0
 59 60  1  0  0  0  0
 37 61  1  0  0  0  0
 57 61  4  0  0  0  0
 60 61  4  0  0  0  0
 38 62  1  0  0  0  0
 40 63  1  0  0  0  0
 41 64  1  0  0  0  0
 44 65  1  0  0  0  0
 46 66  1  0  0  0  0
 47 67  1  0  0  0  0
 52 68  1  0  0  0  0
 53 69  1  0  0  0  0
 56 70  1  0  0  0  0
 58 71  1  0  0  0  0
 59 72  1  0  0  0  0
 14 73  4  0  0  0  0
 73 74  3  0  0  0  0
 74 75  4  0  0  0  0
 75 76  3  0  0  0  0
 76 77  4  0  0  0  0
 77 78  3  0  0  0  0
 78 79  4  0  0  0  0
 79 80  3  0  0  0  0
 81 82  3  0  0  0  0
 82 83  4  0  0  0  0
 83 84  3  0  0  0  0
 84 85  4  0  0  0  0
 85 86  3  0  0  0  0
 86 87  4  0  0  0  0
 87 88  3  0  0  0  0
 89 90  3  0  0  0  0
 90 91  4  0  0  0  0
 91 92  3  0  0  0  0
 92 93  4  0  0  0  0
 93 94  3  0  0  0  0
 94 95  4  0  0  0  0
 50 96  4  0  0  0  0
 95 96  3  0  0  0  0
 80 98  4  0  0  0  0
 98 99  4  0  0  0  0
 99100  4  0  0  0  0
100101  2  0  0  0  0
101102  4  0  0  0  0
 97103  1  0  0  0  0
 99103  4  0  0  0  0
102103  4  0  0  0  0
102104  4  0  0  0  0
104105  4  0  0  0  0
105106  4  0  0  0  0
106107  2  0  0  0  0
 97108  1  0  0  0  0
105108  4  0  0  0  0
107109  4  0  0  0  0
108109  4  0  0  0  0
 81110  4  0  0  0  0
109110  4  0  0  0  0
110111  4  0  0  0  0
111112  4  0  0  0  0
112113  2  0  0  0  0
113114  4  0  0  0  0
 97115  1  0  0  0  0
111115  4  0  0  0  0
114115  4  0  0  0  0
114116  4  0  0  0  0
116117  4  0  0  0  0
117118  4  0  0  0  0
118119  2  0  0  0  0
 98120  4  0  0  0  0
119120  4  0  0  0  0
 97121  1  0  0  0  0
117121  4  0  0  0  0
120121  4  0  0  0  0
100122  1  0  0  0  0
101123  1  0  0  0  0
104124  1  0  0  0  0
106125  1  0  0  0  0
107126  1  0  0  0  0
112127  1  0  0  0  0
113128  1  0  0  0  0
116129  1  0  0  0  0
118130  1  0  0  0  0
119131  1  0  0  0  0
 88133  4  0  0  0  0
133134  4  0  0  0  0
134135  4  0  0  0  0
135136  2  0  0  0  0
136137  4  0  0  0  0
132138  1  0  0  0  0
134138  4  0  0  0  0
137138  4  0  0  0  0
137139  4  0  0  0  0
139140  4  0  0  0  0
140141  4  0  0  0  0
141142  2  0  0  0  0
132143  1  0  0  0  0
140143  4  0  0  0  0
142144  4  0  0  0  0
143144  4  0  0  0  0
 89145  4  0  0  0  0
144145  4  0  0  0  0
145146  4  0  0  0  0
146147  4  0  0  0  0
147148  2  0  0  0  0
148149  4  0  0  0  0
132150  1  0  0  0  0
146150  4  0  0  0  0
149150  4  0  0  0  0
149151  4  0  0  0  0
151152  4  0  0  0  0
152153  4  0  0  0  0
153154  2  0  0  0  0
133155  4  0  0  0  0
154155  4  0  0  0  0
132156  1  0  0  0  0
152156  4  0  0  0  0
155156  4  0  0  0  0
135157  1  0  0  0  0
136158  1  0  0  0  0
139159  1  0  0  0  0
141160  1  0  0  0  0
142161  1  0  0  0  0
147162  1  0  0  0  0
148163  1  0  0  0  0
151164  1  0  0  0  0
153165  1  0  0  0  0
154166  1  0  0  0  0
M  END
