 xtb: 6.5.1 (b24c23e)
          07292219333D

182202  0     0  0            999 V2000
   22.6645   -0.0505    0.0536 C   0  0  0  0  0  0  0  0  0  0  0  0
   23.2728   -1.1318    0.6780 C   0  0  0  0  0  0  0  0  0  0  0  0
   22.6211   -2.2397    1.2892 C   0  0  0  0  0  0  0  0  0  0  0  0
   23.5834   -3.0721    1.7875 C   0  0  0  0  0  0  0  0  0  0  0  0
   24.8543   -2.4948    1.5047 C   0  0  0  0  0  0  0  0  0  0  0  0
   24.6159   -1.3319    0.8286 N   0  0  0  0  0  0  0  0  0  0  0  0
   26.1168   -3.0065    1.8235 C   0  0  0  0  0  0  0  0  0  0  0  0
   27.3328   -2.4082    1.4857 C   0  0  0  0  0  0  0  0  0  0  0  0
   28.6292   -2.9320    1.8774 C   0  0  0  0  0  0  0  0  0  0  0  0
   29.5515   -2.0859    1.3743 C   0  0  0  0  0  0  0  0  0  0  0  0
   27.4894   -1.2575    0.7749 N   0  0  0  0  0  0  0  0  0  0  0  0
   28.8174   -1.0424    0.6846 C   0  0  0  0  0  0  0  0  0  0  0  0
   29.4559    0.0282    0.0268 C   0  0  0  0  0  0  0  0  0  0  0  0
   28.8219    1.0981   -0.6321 C   0  0  0  0  0  0  0  0  0  0  0  0
   29.4673    2.1588   -1.3214 C   0  0  0  0  0  0  0  0  0  0  0  0
   28.5010    2.9863   -1.8222 C   0  0  0  0  0  0  0  0  0  0  0  0
   27.2340    2.4608   -1.4447 C   0  0  0  0  0  0  0  0  0  0  0  0
   25.9725    2.9808   -1.7517 C   0  0  0  0  0  0  0  0  0  0  0  0
   25.9395    4.2472   -2.5233 C   0  0  0  0  0  0  0  0  0  0  0  0
   25.3310    4.2921   -3.7787 C   0  0  0  0  0  0  0  0  0  0  0  0
   25.2999    5.4752   -4.5013 C   0  0  0  0  0  0  0  0  0  0  0  0
   25.8714    6.6276   -3.9791 C   0  0  0  0  0  0  0  0  0  0  0  0
   26.4774    6.5917   -2.7306 C   0  0  0  0  0  0  0  0  0  0  0  0
   26.5144    5.4093   -2.0067 C   0  0  0  0  0  0  0  0  0  0  0  0
   24.7554    2.3950   -1.3873 C   0  0  0  0  0  0  0  0  0  0  0  0
   23.4520    2.9785   -1.6647 C   0  0  0  0  0  0  0  0  0  0  0  0
   22.5366    2.1268   -1.1603 C   0  0  0  0  0  0  0  0  0  0  0  0
   23.2795    1.0295   -0.5661 C   0  0  0  0  0  0  0  0  0  0  0  0
   24.6123    1.2288   -0.7143 N   0  0  0  0  0  0  0  0  0  0  0  0
   27.4803    1.3160   -0.7334 N   0  0  0  0  0  0  0  0  0  0  0  0
   26.1480   -4.2822    2.5815 C   0  0  0  0  0  0  0  0  0  0  0  0
   25.5870   -4.3622    3.8566 C   0  0  0  0  0  0  0  0  0  0  0  0
   25.6239   -5.5539    4.5651 C   0  0  0  0  0  0  0  0  0  0  0  0
   26.2146   -6.6797    4.0076 C   0  0  0  0  0  0  0  0  0  0  0  0
   26.7705   -6.6093    2.7374 C   0  0  0  0  0  0  0  0  0  0  0  0
   26.7404   -5.4181    2.0281 C   0  0  0  0  0  0  0  0  0  0  0  0
   21.5792   -0.0580    0.0559 H   0  0  0  0  0  0  0  0  0  0  0  0
   21.5518   -2.3733    1.3301 H   0  0  0  0  0  0  0  0  0  0  0  0
   23.4331   -4.0086    2.2996 H   0  0  0  0  0  0  0  0  0  0  0  0
   25.3409   -0.7112    0.4844 H   0  0  0  0  0  0  0  0  0  0  0  0
   28.7893   -3.8191    2.4686 H   0  0  0  0  0  0  0  0  0  0  0  0
   30.6256   -2.1357    1.4548 H   0  0  0  0  0  0  0  0  0  0  0  0
   30.5357    2.2627   -1.4219 H   0  0  0  0  0  0  0  0  0  0  0  0
   28.6491    3.8773   -2.4103 H   0  0  0  0  0  0  0  0  0  0  0  0
   24.8961    3.3898   -4.1939 H   0  0  0  0  0  0  0  0  0  0  0  0
   24.8280    5.4970   -5.4773 H   0  0  0  0  0  0  0  0  0  0  0  0
   25.8443    7.5524   -4.5441 H   0  0  0  0  0  0  0  0  0  0  0  0
   26.9223    7.4898   -2.3166 H   0  0  0  0  0  0  0  0  0  0  0  0
   26.9748    5.3877   -1.0251 H   0  0  0  0  0  0  0  0  0  0  0  0
   23.2855    3.9189   -2.1650 H   0  0  0  0  0  0  0  0  0  0  0  0
   21.4610    2.2096   -1.1666 H   0  0  0  0  0  0  0  0  0  0  0  0
   26.7580    0.7155   -0.3496 H   0  0  0  0  0  0  0  0  0  0  0  0
   25.1379   -3.4803    4.2998 H   0  0  0  0  0  0  0  0  0  0  0  0
   25.1912   -5.6028    5.5583 H   0  0  0  0  0  0  0  0  0  0  0  0
   26.2419   -7.6107    4.5624 H   0  0  0  0  0  0  0  0  0  0  0  0
   27.2299   -7.4867    2.2961 H   0  0  0  0  0  0  0  0  0  0  0  0
   27.1650   -5.3673    1.0317 H   0  0  0  0  0  0  0  0  0  0  0  0
   61.4588    0.0708   -0.0133 C   0  0  0  0  0  0  0  0  0  0  0  0
   60.8450    1.1002   -0.7152 C   0  0  0  0  0  0  0  0  0  0  0  0
   61.4912    2.1345   -1.4487 C   0  0  0  0  0  0  0  0  0  0  0  0
   60.5247    2.9426   -1.9780 C   0  0  0  0  0  0  0  0  0  0  0  0
   59.2567    2.4337   -1.5763 C   0  0  0  0  0  0  0  0  0  0  0  0
   59.5008    1.3186   -0.8258 N   0  0  0  0  0  0  0  0  0  0  0  0
   57.9915    2.9433   -1.8888 C   0  0  0  0  0  0  0  0  0  0  0  0
   56.7789    2.3750   -1.4924 C   0  0  0  0  0  0  0  0  0  0  0  0
   55.4800    2.9582   -1.7772 C   0  0  0  0  0  0  0  0  0  0  0  0
   54.5622    2.1282   -1.2400 C   0  0  0  0  0  0  0  0  0  0  0  0
   56.6283    1.2246   -0.7800 N   0  0  0  0  0  0  0  0  0  0  0  0
   55.3014    1.0443   -0.6221 C   0  0  0  0  0  0  0  0  0  0  0  0
   54.6684   -0.0349    0.0273 C   0  0  0  0  0  0  0  0  0  0  0  0
   55.3084   -1.1064    0.6779 C   0  0  0  0  0  0  0  0  0  0  0  0
   54.6696   -2.2076    1.3072 C   0  0  0  0  0  0  0  0  0  0  0  0
   55.6403   -3.0140    1.8338 C   0  0  0  0  0  0  0  0  0  0  0  0
   56.9032   -2.4240    1.5494 C   0  0  0  0  0  0  0  0  0  0  0  0
   58.1669   -2.9122    1.8973 C   0  0  0  0  0  0  0  0  0  0  0  0
   58.2049   -4.1599    2.6986 C   0  0  0  0  0  0  0  0  0  0  0  0
   58.8359   -5.3008    2.2005 C   0  0  0  0  0  0  0  0  0  0  0  0
   58.8706   -6.4670    2.9500 C   0  0  0  0  0  0  0  0  0  0  0  0
   58.2804   -6.5078    4.2060 C   0  0  0  0  0  0  0  0  0  0  0  0
   57.6522   -5.3768    4.7094 C   0  0  0  0  0  0  0  0  0  0  0  0
   57.6114   -4.2101    3.9609 C   0  0  0  0  0  0  0  0  0  0  0  0
   59.3807   -2.3123    1.5455 C   0  0  0  0  0  0  0  0  0  0  0  0
   60.6861   -2.8028    1.9598 C   0  0  0  0  0  0  0  0  0  0  0  0
   61.5971   -1.9682    1.4201 C   0  0  0  0  0  0  0  0  0  0  0  0
   60.8493   -0.9620    0.6869 C   0  0  0  0  0  0  0  0  0  0  0  0
   59.5181   -1.1953    0.7925 N   0  0  0  0  0  0  0  0  0  0  0  0
   56.6505   -1.2789    0.8407 N   0  0  0  0  0  0  0  0  0  0  0  0
   57.9561    4.1818   -2.7056 C   0  0  0  0  0  0  0  0  0  0  0  0
   58.5293    5.3617   -2.2296 C   0  0  0  0  0  0  0  0  0  0  0  0
   58.4974    6.5162   -2.9975 C   0  0  0  0  0  0  0  0  0  0  0  0
   57.8992    6.5053   -4.2502 C   0  0  0  0  0  0  0  0  0  0  0  0
   57.3285    5.3348   -4.7315 C   0  0  0  0  0  0  0  0  0  0  0  0
   57.3536    4.1798   -3.9644 C   0  0  0  0  0  0  0  0  0  0  0  0
   62.5441    0.0833   -0.0175 H   0  0  0  0  0  0  0  0  0  0  0  0
   62.5599    2.2325   -1.5550 H   0  0  0  0  0  0  0  0  0  0  0  0
   60.6708    3.8114   -2.5992 H   0  0  0  0  0  0  0  0  0  0  0  0
   58.7788    0.7362   -0.4150 H   0  0  0  0  0  0  0  0  0  0  0  0
   55.3158    3.8841   -2.3043 H   0  0  0  0  0  0  0  0  0  0  0  0
   53.4879    2.2211   -1.2421 H   0  0  0  0  0  0  0  0  0  0  0  0
   53.6026   -2.3576    1.3424 H   0  0  0  0  0  0  0  0  0  0  0  0
   55.4980   -3.9413    2.3644 H   0  0  0  0  0  0  0  0  0  0  0  0
   59.2854   -5.2750    1.2141 H   0  0  0  0  0  0  0  0  0  0  0  0
   59.3599   -7.3485    2.5509 H   0  0  0  0  0  0  0  0  0  0  0  0
   58.3103   -7.4195    4.7917 H   0  0  0  0  0  0  0  0  0  0  0  0
   57.1926   -5.4022    5.6912 H   0  0  0  0  0  0  0  0  0  0  0  0
   57.1332   -3.3235    4.3627 H   0  0  0  0  0  0  0  0  0  0  0  0
   60.8569   -3.6616    2.5888 H   0  0  0  0  0  0  0  0  0  0  0  0
   62.6725   -1.9991    1.4996 H   0  0  0  0  0  0  0  0  0  0  0  0
   57.3693   -0.6565    0.4862 H   0  0  0  0  0  0  0  0  0  0  0  0
   58.9851    5.3761   -1.2457 H   0  0  0  0  0  0  0  0  0  0  0  0
   58.9410    7.4289   -2.6152 H   0  0  0  0  0  0  0  0  0  0  0  0
   57.8777    7.4078   -4.8505 H   0  0  0  0  0  0  0  0  0  0  0  0
   56.8624    5.3203   -5.7105 H   0  0  0  0  0  0  0  0  0  0  0  0
   56.9185    3.2632   -4.3467 H   0  0  0  0  0  0  0  0  0  0  0  0
   34.6593    0.0593   -0.0169 C   0  0  0  0  0  0  0  0  0  0  0  0
   33.4312    0.0573   -0.0047 C   0  0  0  0  0  0  0  0  0  0  0  0
   32.0862    0.0520    0.0059 C   0  0  0  0  0  0  0  0  0  0  0  0
   30.8626    0.0406    0.0192 C   0  0  0  0  0  0  0  0  0  0  0  0
   36.0041    0.0585   -0.0290 C   0  0  0  0  0  0  0  0  0  0  0  0
   37.2278    0.0511   -0.0403 C   0  0  0  0  0  0  0  0  0  0  0  0
   50.6935   -0.0764    0.0238 C   0  0  0  0  0  0  0  0  0  0  0  0
   49.4653   -0.0770    0.0150 C   0  0  0  0  0  0  0  0  0  0  0  0
   48.1207   -0.0716    0.0018 C   0  0  0  0  0  0  0  0  0  0  0  0
   46.8969   -0.0571   -0.0120 C   0  0  0  0  0  0  0  0  0  0  0  0
   52.0383   -0.0700    0.0306 C   0  0  0  0  0  0  0  0  0  0  0  0
   53.2620   -0.0548    0.0309 C   0  0  0  0  0  0  0  0  0  0  0  0
   38.6336    0.0420   -0.0493 C   0  0  0  0  0  0  0  0  0  0  0  0
   39.2703    1.1993    0.4376 C   0  0  0  0  0  0  0  0  0  0  0  0
   38.6318    2.3546    0.9584 C   0  0  0  0  0  0  0  0  0  0  0  0
   39.6043    3.2503    1.3102 C   0  0  0  0  0  0  0  0  0  0  0  0
   40.8659    2.6700    1.0056 C   0  0  0  0  0  0  0  0  0  0  0  0
   40.6130    1.4272    0.4892 N   0  0  0  0  0  0  0  0  0  0  0  0
   42.1299    3.2378    1.2042 C   0  0  0  0  0  0  0  0  0  0  0  0
   43.3493    2.6142    0.9349 C   0  0  0  0  0  0  0  0  0  0  0  0
   44.6403    3.2587    1.0982 C   0  0  0  0  0  0  0  0  0  0  0  0
   45.5706    2.3439    0.7553 C   0  0  0  0  0  0  0  0  0  0  0  0
   43.5162    1.3419    0.4802 N   0  0  0  0  0  0  0  0  0  0  0  0
   44.8465    1.1471    0.3748 C   0  0  0  0  0  0  0  0  0  0  0  0
   45.4915   -0.0395   -0.0273 C   0  0  0  0  0  0  0  0  0  0  0  0
   44.8541   -1.2211   -0.4510 C   0  0  0  0  0  0  0  0  0  0  0  0
   45.4912   -2.4272   -0.8420 C   0  0  0  0  0  0  0  0  0  0  0  0
   44.5188   -3.3170   -1.2084 C   0  0  0  0  0  0  0  0  0  0  0  0
   43.2587   -2.6762   -1.0581 C   0  0  0  0  0  0  0  0  0  0  0  0
   41.9956   -3.2201   -1.3199 C   0  0  0  0  0  0  0  0  0  0  0  0
   41.9721   -4.5994   -1.8685 C   0  0  0  0  0  0  0  0  0  0  0  0
   42.5643   -4.8800   -3.1006 C   0  0  0  0  0  0  0  0  0  0  0  0
   42.5404   -6.1686   -3.6127 C   0  0  0  0  0  0  0  0  0  0  0  0
   41.9312   -7.1920   -2.8995 C   0  0  0  0  0  0  0  0  0  0  0  0
   41.3426   -6.9213   -1.6717 C   0  0  0  0  0  0  0  0  0  0  0  0
   41.3597   -5.6330   -1.1587 C   0  0  0  0  0  0  0  0  0  0  0  0
   40.7761   -2.5750   -1.1072 C   0  0  0  0  0  0  0  0  0  0  0  0
   39.4861   -3.1541   -1.4377 C   0  0  0  0  0  0  0  0  0  0  0  0
   38.5557   -2.2462   -1.0771 C   0  0  0  0  0  0  0  0  0  0  0  0
   39.2790   -1.1108   -0.5393 C   0  0  0  0  0  0  0  0  0  0  0  0
   40.6088   -1.3313   -0.5795 N   0  0  0  0  0  0  0  0  0  0  0  0
   43.5120   -1.4155   -0.5876 N   0  0  0  0  0  0  0  0  0  0  0  0
   42.1562    4.6173    1.7519 C   0  0  0  0  0  0  0  0  0  0  0  0
   41.5808    5.6731    1.0437 C   0  0  0  0  0  0  0  0  0  0  0  0
   41.6081    6.9603    1.5592 C   0  0  0  0  0  0  0  0  0  0  0  0
   42.2038    7.2077    2.7885 C   0  0  0  0  0  0  0  0  0  0  0  0
   42.7760    6.1621    3.5003 C   0  0  0  0  0  0  0  0  0  0  0  0
   42.7555    4.8746    2.9858 C   0  0  0  0  0  0  0  0  0  0  0  0
   37.5646    2.4743    1.0535 H   0  0  0  0  0  0  0  0  0  0  0  0
   39.4627    4.2237    1.7506 H   0  0  0  0  0  0  0  0  0  0  0  0
   41.3283    0.7699    0.1965 H   0  0  0  0  0  0  0  0  0  0  0  0
   44.7915    4.2768    1.4184 H   0  0  0  0  0  0  0  0  0  0  0  0
   46.6439    2.4460    0.7448 H   0  0  0  0  0  0  0  0  0  0  0  0
   46.5575   -2.5861   -0.8370 H   0  0  0  0  0  0  0  0  0  0  0  0
   44.6592   -4.3313   -1.5446 H   0  0  0  0  0  0  0  0  0  0  0  0
   43.0291   -4.0794   -3.6653 H   0  0  0  0  0  0  0  0  0  0  0  0
   42.9986   -6.3739   -4.5738 H   0  0  0  0  0  0  0  0  0  0  0  0
   41.9152   -8.1993   -3.3001 H   0  0  0  0  0  0  0  0  0  0  0  0
   40.8681   -7.7178   -1.1093 H   0  0  0  0  0  0  0  0  0  0  0  0
   40.9103   -5.4255   -0.1940 H   0  0  0  0  0  0  0  0  0  0  0  0
   39.3354   -4.1186   -1.8948 H   0  0  0  0  0  0  0  0  0  0  0  0
   37.4829   -2.3098   -1.1648 H   0  0  0  0  0  0  0  0  0  0  0  0
   42.7976   -0.7288   -0.3700 H   0  0  0  0  0  0  0  0  0  0  0  0
   41.1268    5.4843    0.0771 H   0  0  0  0  0  0  0  0  0  0  0  0
   41.1631    7.7741    0.9975 H   0  0  0  0  0  0  0  0  0  0  0  0
   42.2224    8.2141    3.1911 H   0  0  0  0  0  0  0  0  0  0  0  0
   43.2400    6.3495    4.4623 H   0  0  0  0  0  0  0  0  0  0  0  0
   43.1922    4.0568    3.5481 H   0  0  0  0  0  0  0  0  0  0  0  0
  1  2  4  0  0  0  0
  2  3  4  0  0  0  0
  3  4  2  0  0  0  0
  4  5  4  0  0  0  0
  2  6  4  0  0  0  0
  5  6  4  0  0  0  0
  5  7  4  0  0  0  0
  7  8  4  0  0  0  0
  8  9  1  0  0  0  0
  9 10  2  0  0  0  0
  8 11  4  0  0  0  0
 10 12  1  0  0  0  0
 11 12  4  0  0  0  0
 12 13  4  0  0  0  0
 13 14  4  0  0  0  0
 14 15  4  0  0  0  0
 15 16  2  0  0  0  0
 16 17  4  0  0  0  0
 17 18  4  0  0  0  0
 18 19  1  0  0  0  0
 19 20  4  0  0  0  0
 20 21  4  0  0  0  0
 21 22  4  0  0  0  0
 22 23  4  0  0  0  0
 19 24  4  0  0  0  0
 23 24  4  0  0  0  0
 18 25  4  0  0  0  0
 25 26  1  0  0  0  0
 26 27  2  0  0  0  0
  1 28  4  0  0  0  0
 27 28  1  0  0  0  0
 25 29  4  0  0  0  0
 28 29  4  0  0  0  0
 14 30  4  0  0  0  0
 17 30  4  0  0  0  0
  7 31  1  0  0  0  0
 31 32  4  0  0  0  0
 32 33  4  0  0  0  0
 33 34  4  0  0  0  0
 34 35  4  0  0  0  0
 31 36  4  0  0  0  0
 35 36  4  0  0  0  0
  1 37  1  0  0  0  0
  3 38  1  0  0  0  0
  4 39  1  0  0  0  0
  6 40  1  0  0  0  0
  9 41  1  0  0  0  0
 10 42  1  0  0  0  0
 15 43  1  0  0  0  0
 16 44  1  0  0  0  0
 20 45  1  0  0  0  0
 21 46  1  0  0  0  0
 22 47  1  0  0  0  0
 23 48  1  0  0  0  0
 24 49  1  0  0  0  0
 26 50  1  0  0  0  0
 27 51  1  0  0  0  0
 30 52  1  0  0  0  0
 32 53  1  0  0  0  0
 33 54  1  0  0  0  0
 34 55  1  0  0  0  0
 35 56  1  0  0  0  0
 36 57  1  0  0  0  0
 58 59  4  0  0  0  0
 59 60  4  0  0  0  0
 60 61  2  0  0  0  0
 61 62  4  0  0  0  0
 59 63  4  0  0  0  0
 62 63  4  0  0  0  0
 62 64  4  0  0  0  0
 64 65  4  0  0  0  0
 65 66  1  0  0  0  0
 66 67  2  0  0  0  0
 65 68  4  0  0  0  0
 67 69  1  0  0  0  0
 68 69  4  0  0  0  0
 69 70  4  0  0  0  0
 70 71  4  0  0  0  0
 71 72  4  0  0  0  0
 72 73  2  0  0  0  0
 73 74  4  0  0  0  0
 74 75  4  0  0  0  0
 75 76  1  0  0  0  0
 76 77  4  0  0  0  0
 77 78  4  0  0  0  0
 78 79  4  0  0  0  0
 79 80  4  0  0  0  0
 76 81  4  0  0  0  0
 80 81  4  0  0  0  0
 75 82  4  0  0  0  0
 82 83  1  0  0  0  0
 83 84  2  0  0  0  0
 58 85  4  0  0  0  0
 84 85  1  0  0  0  0
 82 86  4  0  0  0  0
 85 86  4  0  0  0  0
 71 87  4  0  0  0  0
 74 87  4  0  0  0  0
 64 88  1  0  0  0  0
 88 89  4  0  0  0  0
 89 90  4  0  0  0  0
 90 91  4  0  0  0  0
 91 92  4  0  0  0  0
 88 93  4  0  0  0  0
 92 93  4  0  0  0  0
 58 94  1  0  0  0  0
 60 95  1  0  0  0  0
 61 96  1  0  0  0  0
 63 97  1  0  0  0  0
 66 98  1  0  0  0  0
 67 99  1  0  0  0  0
 72100  1  0  0  0  0
 73101  1  0  0  0  0
 77102  1  0  0  0  0
 78103  1  0  0  0  0
 79104  1  0  0  0  0
 80105  1  0  0  0  0
 81106  1  0  0  0  0
 83107  1  0  0  0  0
 84108  1  0  0  0  0
 87109  1  0  0  0  0
 89110  1  0  0  0  0
 90111  1  0  0  0  0
 91112  1  0  0  0  0
 92113  1  0  0  0  0
 93114  1  0  0  0  0
115116  3  0  0  0  0
116117  4  0  0  0  0
 13118  4  0  0  0  0
117118  3  0  0  0  0
115119  4  0  0  0  0
119120  3  0  0  0  0
121122  3  0  0  0  0
122123  4  0  0  0  0
123124  3  0  0  0  0
121125  4  0  0  0  0
 70126  4  0  0  0  0
125126  3  0  0  0  0
120127  4  0  0  0  0
127128  4  0  0  0  0
128129  4  0  0  0  0
129130  2  0  0  0  0
130131  4  0  0  0  0
128132  4  0  0  0  0
131132  4  0  0  0  0
131133  4  0  0  0  0
133134  4  0  0  0  0
134135  1  0  0  0  0
135136  2  0  0  0  0
134137  4  0  0  0  0
136138  1  0  0  0  0
137138  4  0  0  0  0
124139  4  0  0  0  0
138139  4  0  0  0  0
139140  4  0  0  0  0
140141  4  0  0  0  0
141142  2  0  0  0  0
142143  4  0  0  0  0
143144  4  0  0  0  0
144145  1  0  0  0  0
145146  4  0  0  0  0
146147  4  0  0  0  0
147148  4  0  0  0  0
148149  4  0  0  0  0
145150  4  0  0  0  0
149150  4  0  0  0  0
144151  4  0  0  0  0
151152  1  0  0  0  0
152153  2  0  0  0  0
127154  4  0  0  0  0
153154  1  0  0  0  0
151155  4  0  0  0  0
154155  4  0  0  0  0
140156  4  0  0  0  0
143156  4  0  0  0  0
133157  1  0  0  0  0
157158  4  0  0  0  0
158159  4  0  0  0  0
159160  4  0  0  0  0
160161  4  0  0  0  0
157162  4  0  0  0  0
161162  4  0  0  0  0
129163  1  0  0  0  0
130164  1  0  0  0  0
132165  1  0  0  0  0
135166  1  0  0  0  0
136167  1  0  0  0  0
141168  1  0  0  0  0
142169  1  0  0  0  0
146170  1  0  0  0  0
147171  1  0  0  0  0
148172  1  0  0  0  0
149173  1  0  0  0  0
150174  1  0  0  0  0
152175  1  0  0  0  0
153176  1  0  0  0  0
156177  1  0  0  0  0
158178  1  0  0  0  0
159179  1  0  0  0  0
160180  1  0  0  0  0
161181  1  0  0  0  0
162182  1  0  0  0  0
M  END
