 xtb: 6.5.1 (b24c23e)
          07292219123D

114133  0     0  0            999 V2000
   15.3481   -0.0492   -0.0591 Fe  0  0  0  0  0  0  0  0  0  0  0  0
   11.9614   -0.0833   -0.0320 C   0  0  0  0  0  0  0  0  0  0  0  0
   12.6190   -1.2735   -0.2679 C   0  0  0  0  0  0  0  0  0  0  0  0
   11.9519   -2.5156   -0.5185 C   0  0  0  0  0  0  0  0  0  0  0  0
   12.9113   -3.4701   -0.5585 C   0  0  0  0  0  0  0  0  0  0  0  0
   14.1649   -2.8084   -0.3380 C   0  0  0  0  0  0  0  0  0  0  0  0
   13.9735   -1.4620   -0.1847 N   0  0  0  0  0  0  0  0  0  0  0  0
   15.3759   -3.4704   -0.1659 C   0  0  0  0  0  0  0  0  0  0  0  0
   16.5725   -2.8059    0.0619 C   0  0  0  0  0  0  0  0  0  0  0  0
   17.8336   -3.4645    0.2282 C   0  0  0  0  0  0  0  0  0  0  0  0
   18.7789   -2.4946    0.2638 C   0  0  0  0  0  0  0  0  0  0  0  0
   16.7490   -1.4424    0.0303 N   0  0  0  0  0  0  0  0  0  0  0  0
   18.0969   -1.2485    0.1090 C   0  0  0  0  0  0  0  0  0  0  0  0
   18.7558   -0.0204   -0.0310 C   0  0  0  0  0  0  0  0  0  0  0  0
   18.0701    1.1947   -0.1569 C   0  0  0  0  0  0  0  0  0  0  0  0
   18.7205    2.4511   -0.3559 C   0  0  0  0  0  0  0  0  0  0  0  0
   17.7589    3.4038   -0.2882 C   0  0  0  0  0  0  0  0  0  0  0  0
   16.5216    2.7240   -0.0485 C   0  0  0  0  0  0  0  0  0  0  0  0
   15.3115    3.3673    0.1763 C   0  0  0  0  0  0  0  0  0  0  0  0
   15.3024    4.8464    0.2627 C   0  0  0  0  0  0  0  0  0  0  0  0
   14.5608    5.6070   -0.6424 C   0  0  0  0  0  0  0  0  0  0  0  0
   14.5600    6.9912   -0.5582 C   0  0  0  0  0  0  0  0  0  0  0  0
   15.2922    7.6312    0.4326 C   0  0  0  0  0  0  0  0  0  0  0  0
   16.0305    6.8812    1.3381 C   0  0  0  0  0  0  0  0  0  0  0  0
   16.0400    5.4973    1.2528 C   0  0  0  0  0  0  0  0  0  0  0  0
   14.1101    2.6805    0.3148 C   0  0  0  0  0  0  0  0  0  0  0  0
   12.8469    3.3094    0.5727 C   0  0  0  0  0  0  0  0  0  0  0  0
   11.9049    2.3391    0.5010 C   0  0  0  0  0  0  0  0  0  0  0  0
   12.5949    1.1175    0.2152 C   0  0  0  0  0  0  0  0  0  0  0  0
   13.9471    1.3311    0.1521 N   0  0  0  0  0  0  0  0  0  0  0  0
   16.7244    1.3655   -0.0149 N   0  0  0  0  0  0  0  0  0  0  0  0
   15.3871   -4.9528   -0.2323 C   0  0  0  0  0  0  0  0  0  0  0  0
   15.1127   -5.6057   -1.4341 C   0  0  0  0  0  0  0  0  0  0  0  0
   15.1241   -6.9911   -1.4960 C   0  0  0  0  0  0  0  0  0  0  0  0
   15.4031   -7.7383   -0.3597 C   0  0  0  0  0  0  0  0  0  0  0  0
   15.6745   -7.0947    0.8399 C   0  0  0  0  0  0  0  0  0  0  0  0
   15.6700   -5.7093    0.9050 C   0  0  0  0  0  0  0  0  0  0  0  0
   10.8772   -0.0935   -0.0347 H   0  0  0  0  0  0  0  0  0  0  0  0
   10.8851   -2.6250   -0.6328 H   0  0  0  0  0  0  0  0  0  0  0  0
   12.7920   -4.5311   -0.7068 H   0  0  0  0  0  0  0  0  0  0  0  0
   17.9700   -4.5317    0.2912 H   0  0  0  0  0  0  0  0  0  0  0  0
   19.8451   -2.6017    0.3771 H   0  0  0  0  0  0  0  0  0  0  0  0
   19.7765    2.5755   -0.5304 H   0  0  0  0  0  0  0  0  0  0  0  0
   17.8667    4.4703   -0.4006 H   0  0  0  0  0  0  0  0  0  0  0  0
   13.9989    5.1092   -1.4248 H   0  0  0  0  0  0  0  0  0  0  0  0
   13.9854    7.5729   -1.2705 H   0  0  0  0  0  0  0  0  0  0  0  0
   15.2879    8.7133    0.4987 H   0  0  0  0  0  0  0  0  0  0  0  0
   16.6020    7.3763    2.1153 H   0  0  0  0  0  0  0  0  0  0  0  0
   16.6084    4.9117    1.9669 H   0  0  0  0  0  0  0  0  0  0  0  0
   12.7112    4.3583    0.7805 H   0  0  0  0  0  0  0  0  0  0  0  0
   10.8371    2.4238    0.6261 H   0  0  0  0  0  0  0  0  0  0  0  0
   14.9045   -5.0222   -2.3240 H   0  0  0  0  0  0  0  0  0  0  0  0
   14.9144   -7.4893   -2.4361 H   0  0  0  0  0  0  0  0  0  0  0  0
   15.4089   -8.8213   -0.4092 H   0  0  0  0  0  0  0  0  0  0  0  0
   15.8902   -7.6743    1.7308 H   0  0  0  0  0  0  0  0  0  0  0  0
   15.8716   -5.2074    1.8447 H   0  0  0  0  0  0  0  0  0  0  0  0
   26.1910    0.0517   -0.0569 Fe  0  0  0  0  0  0  0  0  0  0  0  0
   29.5777    0.0845   -0.0284 C   0  0  0  0  0  0  0  0  0  0  0  0
   28.9202    1.2839   -0.2124 C   0  0  0  0  0  0  0  0  0  0  0  0
   29.5873    2.5356   -0.4087 C   0  0  0  0  0  0  0  0  0  0  0  0
   28.6279    3.4910   -0.4073 C   0  0  0  0  0  0  0  0  0  0  0  0
   27.3743    2.8204   -0.2158 C   0  0  0  0  0  0  0  0  0  0  0  0
   27.5657    1.4686   -0.1211 N   0  0  0  0  0  0  0  0  0  0  0  0
   26.1633    3.4743   -0.0150 C   0  0  0  0  0  0  0  0  0  0  0  0
   24.9666    2.8006    0.1837 C   0  0  0  0  0  0  0  0  0  0  0  0
   23.7056    3.4514    0.3785 C   0  0  0  0  0  0  0  0  0  0  0  0
   22.7603    2.4809    0.3720 C   0  0  0  0  0  0  0  0  0  0  0  0
   24.7901    1.4398    0.0930 N   0  0  0  0  0  0  0  0  0  0  0  0
   23.4422    1.2427    0.1631 C   0  0  0  0  0  0  0  0  0  0  0  0
   22.7833    0.0219   -0.0301 C   0  0  0  0  0  0  0  0  0  0  0  0
   23.4690   -1.1867   -0.2087 C   0  0  0  0  0  0  0  0  0  0  0  0
   22.8185   -2.4333   -0.4620 C   0  0  0  0  0  0  0  0  0  0  0  0
   23.7801   -3.3880   -0.4357 C   0  0  0  0  0  0  0  0  0  0  0  0
   25.0174   -2.7193   -0.1668 C   0  0  0  0  0  0  0  0  0  0  0  0
   26.2275   -3.3718    0.0298 C   0  0  0  0  0  0  0  0  0  0  0  0
   26.2366   -4.8532    0.0520 C   0  0  0  0  0  0  0  0  0  0  0  0
   26.9782   -5.5738   -0.8853 C   0  0  0  0  0  0  0  0  0  0  0  0
   26.9792   -6.9603   -0.8611 C   0  0  0  0  0  0  0  0  0  0  0  0
   26.2470   -7.6428    0.1010 C   0  0  0  0  0  0  0  0  0  0  0  0
   25.5087   -6.9328    1.0381 C   0  0  0  0  0  0  0  0  0  0  0  0
   25.4990   -5.5465    1.0130 C   0  0  0  0  0  0  0  0  0  0  0  0
   27.4289   -2.6917    0.1980 C   0  0  0  0  0  0  0  0  0  0  0  0
   28.6921   -3.3312    0.4283 C   0  0  0  0  0  0  0  0  0  0  0  0
   29.6341   -2.3588    0.3988 C   0  0  0  0  0  0  0  0  0  0  0  0
   28.9441   -1.1259    0.1664 C   0  0  0  0  0  0  0  0  0  0  0  0
   27.5920   -1.3365    0.0941 N   0  0  0  0  0  0  0  0  0  0  0  0
   24.8147   -1.3635   -0.0742 N   0  0  0  0  0  0  0  0  0  0  0  0
   26.1521    4.9583   -0.0169 C   0  0  0  0  0  0  0  0  0  0  0  0
   26.4266    5.6626   -1.1893 C   0  0  0  0  0  0  0  0  0  0  0  0
   26.4151    7.0495   -1.1910 C   0  0  0  0  0  0  0  0  0  0  0  0
   26.1360    7.7467   -0.0234 C   0  0  0  0  0  0  0  0  0  0  0  0
   25.8647    7.0516    1.1472 C   0  0  0  0  0  0  0  0  0  0  0  0
   25.8693    5.6646    1.1521 C   0  0  0  0  0  0  0  0  0  0  0  0
   30.6619    0.0948   -0.0307 H   0  0  0  0  0  0  0  0  0  0  0  0
   30.6541    2.6499   -0.5182 H   0  0  0  0  0  0  0  0  0  0  0  0
   28.7472    4.5575   -0.5094 H   0  0  0  0  0  0  0  0  0  0  0  0
   23.5692    4.5149    0.4878 H   0  0  0  0  0  0  0  0  0  0  0  0
   21.6941    2.5830    0.4897 H   0  0  0  0  0  0  0  0  0  0  0  0
   21.7625   -2.5499   -0.6418 H   0  0  0  0  0  0  0  0  0  0  0  0
   23.6723   -4.4486   -0.5943 H   0  0  0  0  0  0  0  0  0  0  0  0
   27.5401   -5.0425   -1.6454 H   0  0  0  0  0  0  0  0  0  0  0  0
   27.5537   -7.5106   -1.5980 H   0  0  0  0  0  0  0  0  0  0  0  0
   26.2514   -8.7267    0.1201 H   0  0  0  0  0  0  0  0  0  0  0  0
   24.9372   -7.4612    1.7932 H   0  0  0  0  0  0  0  0  0  0  0  0
   24.9306   -4.9925    1.7517 H   0  0  0  0  0  0  0  0  0  0  0  0
   28.8278   -4.3882    0.5904 H   0  0  0  0  0  0  0  0  0  0  0  0
   30.7020   -2.4489    0.5201 H   0  0  0  0  0  0  0  0  0  0  0  0
   26.6347    5.1184   -2.1037 H   0  0  0  0  0  0  0  0  0  0  0  0
   26.6248    7.5880   -2.1085 H   0  0  0  0  0  0  0  0  0  0  0  0
   26.1302    8.8308   -0.0258 H   0  0  0  0  0  0  0  0  0  0  0  0
   25.6490    7.5919    2.0624 H   0  0  0  0  0  0  0  0  0  0  0  0
   25.6677    5.1224    2.0691 H   0  0  0  0  0  0  0  0  0  0  0  0
   20.1601   -0.0050   -0.0414 C   0  0  0  0  0  0  0  0  0  0  0  0
   21.3790    0.0069   -0.0412 C   0  0  0  0  0  0  0  0  0  0  0  0
  2  3  4  0  0  0  0
  3  4  4  0  0  0  0
  4  5  2  0  0  0  0
  5  6  4  0  0  0  0
  1  7  1  0  0  0  0
  3  7  4  0  0  0  0
  6  7  4  0  0  0  0
  6  8  4  0  0  0  0
  8  9  4  0  0  0  0
  9 10  4  0  0  0  0
 10 11  2  0  0  0  0
  1 12  1  0  0  0  0
  9 12  4  0  0  0  0
 11 13  4  0  0  0  0
 12 13  4  0  0  0  0
 13 14  4  0  0  0  0
 14 15  4  0  0  0  0
 15 16  4  0  0  0  0
 16 17  2  0  0  0  0
 17 18  4  0  0  0  0
 18 19  4  0  0  0  0
 19 20  1  0  0  0  0
 20 21  4  0  0  0  0
 21 22  4  0  0  0  0
 22 23  4  0  0  0  0
 23 24  4  0  0  0  0
 20 25  4  0  0  0  0
 24 25  4  0  0  0  0
 19 26  4  0  0  0  0
 26 27  4  0  0  0  0
 27 28  2  0  0  0  0
  2 29  4  0  0  0  0
 28 29  4  0  0  0  0
  1 30  1  0  0  0  0
 26 30  4  0  0  0  0
 29 30  4  0  0  0  0
  1 31  1  0  0  0  0
 15 31  4  0  0  0  0
 18 31  4  0  0  0  0
  8 32  1  0  0  0  0
 32 33  4  0  0  0  0
 33 34  4  0  0  0  0
 34 35  4  0  0  0  0
 35 36  4  0  0  0  0
 32 37  4  0  0  0  0
 36 37  4  0  0  0  0
  2 38  1  0  0  0  0
  4 39  1  0  0  0  0
  5 40  1  0  0  0  0
 10 41  1  0  0  0  0
 11 42  1  0  0  0  0
 16 43  1  0  0  0  0
 17 44  1  0  0  0  0
 21 45  1  0  0  0  0
 22 46  1  0  0  0  0
 23 47  1  0  0  0  0
 24 48  1  0  0  0  0
 25 49  1  0  0  0  0
 27 50  1  0  0  0  0
 28 51  1  0  0  0  0
 33 52  1  0  0  0  0
 34 53  1  0  0  0  0
 35 54  1  0  0  0  0
 36 55  1  0  0  0  0
 37 56  1  0  0  0  0
 58 59  4  0  0  0  0
 59 60  4  0  0  0  0
 60 61  2  0  0  0  0
 61 62  4  0  0  0  0
 57 63  1  0  0  0  0
 59 63  4  0  0  0  0
 62 63  4  0  0  0  0
 62 64  4  0  0  0  0
 64 65  4  0  0  0  0
 65 66  4  0  0  0  0
 66 67  2  0  0  0  0
 57 68  1  0  0  0  0
 65 68  4  0  0  0  0
 67 69  4  0  0  0  0
 68 69  4  0  0  0  0
 69 70  4  0  0  0  0
 70 71  4  0  0  0  0
 71 72  4  0  0  0  0
 72 73  2  0  0  0  0
 73 74  4  0  0  0  0
 74 75  4  0  0  0  0
 75 76  1  0  0  0  0
 76 77  4  0  0  0  0
 77 78  4  0  0  0  0
 78 79  4  0  0  0  0
 79 80  4  0  0  0  0
 76 81  4  0  0  0  0
 80 81  4  0  0  0  0
 75 82  4  0  0  0  0
 82 83  4  0  0  0  0
 83 84  2  0  0  0  0
 58 85  4  0  0  0  0
 84 85  4  0  0  0  0
 57 86  1  0  0  0  0
 82 86  4  0  0  0  0
 85 86  4  0  0  0  0
 57 87  1  0  0  0  0
 71 87  4  0  0  0  0
 74 87  4  0  0  0  0
 64 88  1  0  0  0  0
 88 89  4  0  0  0  0
 89 90  4  0  0  0  0
 90 91  4  0  0  0  0
 91 92  4  0  0  0  0
 88 93  4  0  0  0  0
 92 93  4  0  0  0  0
 58 94  1  0  0  0  0
 60 95  1  0  0  0  0
 61 96  1  0  0  0  0
 66 97  1  0  0  0  0
 67 98  1  0  0  0  0
 72 99  1  0  0  0  0
 73100  1  0  0  0  0
 77101  1  0  0  0  0
 78102  1  0  0  0  0
 79103  1  0  0  0  0
 80104  1  0  0  0  0
 81105  1  0  0  0  0
 83106  1  0  0  0  0
 84107  1  0  0  0  0
 89108  1  0  0  0  0
 90109  1  0  0  0  0
 91110  1  0  0  0  0
 92111  1  0  0  0  0
 93112  1  0  0  0  0
 14113  4  0  0  0  0
 70114  4  0  0  0  0
113114  3  0  0  0  0
M  END
