268

C 13.776269 -0.000867 -0.000674
C 14.510702 -1.378025 -0.072561
C 13.923557 -2.621689 -0.137477
C 14.975475 -3.577587 -0.187379
C 16.163927 -2.880402 -0.150990
N 15.872235 -1.544723 -0.081263
C 17.595283 -3.498724 -0.183276
C 18.717844 -2.753917 -0.144392
C 20.002830 -3.406383 -0.178462
C 20.940114 -2.465155 -0.129325
N 18.939675 -1.411700 -0.074316
C 20.289053 -1.167287 -0.061563
C 20.985815 0.000465 -0.000604
C 20.211150 1.392753 0.072084
C 20.774729 2.653292 0.137898
C 19.716705 3.597449 0.187186
C 18.538793 2.887520 0.150114
N 18.844142 1.550384 0.080305
C 17.105996 3.512082 0.182711
C 15.988475 2.762474 0.143577
C 14.684706 3.387195 0.176182
C 13.768223 2.423142 0.125857
C 14.462278 1.157505 0.059794
N 15.798360 1.418732 0.073433
H 12.693552 0.007350 -0.000248
H 12.862881 -2.819356 -0.147794
H 14.876210 -4.650650 -0.243394
H 16.552260 -0.788684 -0.041800
H 17.673325 -4.578157 -0.239634
H 20.167791 -4.467297 -0.233853
H 21.998153 -2.652553 -0.139112
H 21.830103 2.878067 0.149637
H 19.805131 4.671546 0.243264
H 18.165439 0.792542 0.040739
H 17.024764 4.590962 0.239029
H 14.498732 4.444351 0.231365
H 12.701342 2.552542 0.132608
C 133.550540 0.001776 -0.000845
C 132.816106 1.358313 -0.248920
C 133.403252 2.583354 -0.472947
C 132.351334 3.524938 -0.645142
C 131.162881 2.838192 -0.519558
N 131.454574 1.522514 -0.278949
C 129.731526 3.447254 -0.630950
C 128.608965 2.713600 -0.496778
C 127.323979 3.356295 -0.614322
C 126.386695 2.429161 -0.444768
N 128.387134 1.391484 -0.254984
C 127.037755 1.150730 -0.210962
C 126.340994 0.000465 -0.000604
C 127.115659 -1.370973 0.250208
C 126.552080 -2.612635 0.477291
C 127.610104 -3.542654 0.647372
C 128.788016 -2.843357 0.519474
N 128.482667 -1.526245 0.278597
C 130.220813 -3.458567 0.631976
C 131.338334 -2.720185 0.496939
C 132.642102 -3.335552 0.609469
C 133.558586 -2.385935 0.435806
C 132.864531 -1.139250 0.207822
N 131.528449 -1.396564 0.254881
H 134.633256 -0.006318 0.000633
H 134.463928 2.778061 -0.508552
H 132.450598 4.581932 -0.838442
H 130.774549 0.777796 -0.142761
H 129.653483 4.510521 -0.825407
H 127.159018 4.401321 -0.805443
H 125.328656 2.613753 -0.478530
H 125.496706 -2.834044 0.517788
H 127.521677 -4.600665 0.840865
H 129.161370 -0.779752 0.142075
H 130.302045 -4.521291 0.826321
H 132.828077 -4.376878 0.799900
H 134.625467 -2.513398 0.459112
C 24.839002 -0.002026 0.002624
C 26.203990 -0.015702 -0.011191
C 27.967966 -0.003517 -0.018034
C 28.625483 -0.006850 -0.028176
C 30.205116 0.007636 -0.036358
C 31.315430 0.007575 -0.027071
C 32.898649 0.031586 -0.002530
C 34.042729 0.035069 0.011069
C 35.384972 0.019918 0.014171
C 36.505679 -0.002026 0.002624
C 46.317385 -0.002026 0.002624
C 47.682373 -0.015702 -0.011191
C 49.446348 -0.003517 -0.018034
C 50.103866 -0.006850 -0.028176
C 51.683499 0.007636 -0.036358
C 52.793813 0.007575 -0.027071
C 54.377032 0.031586 -0.002530
C 55.521112 0.035069 0.011069
C 56.863355 0.019918 0.014171
C 57.984062 -0.002026 0.002624
C 67.795768 -0.002026 0.002624
C 69.160756 -0.015702 -0.011191
C 70.924731 -0.003517 -0.018034
C 71.582249 -0.006850 -0.028176
C 73.161882 0.007636 -0.036358
C 74.272196 0.007575 -0.027071
C 75.855415 0.031586 -0.002530
C 76.999495 0.035069 0.011069
C 78.341738 0.019918 0.014171
C 79.462445 -0.002026 0.002624
C 89.274151 -0.002026 0.002624
C 90.639139 -0.015702 -0.011191
C 92.403114 -0.003517 -0.018034
C 93.060631 -0.006850 -0.028176
C 94.640265 0.007636 -0.036358
C 95.750579 0.007575 -0.027071
C 97.333798 0.031586 -0.002530
C 98.477878 0.035069 0.011069
C 99.820121 0.019918 0.014171
C 100.940828 -0.002026 0.002624
C 110.752533 -0.002026 0.002624
C 112.117521 -0.015702 -0.011191
C 113.881497 -0.003517 -0.018034
C 114.539014 -0.006850 -0.028176
C 116.118648 0.007636 -0.036358
C 117.228961 0.007575 -0.027071
C 118.812181 0.031586 -0.002530
C 119.956260 0.035069 0.011069
C 121.298504 0.019918 0.014171
C 122.419211 -0.002026 0.002624
C 37.791134 0.000465 -0.000601
C 38.571174 1.388000 -0.017926
C 38.019069 2.654101 -0.033750
C 39.087686 3.586725 -0.045382
C 40.258594 2.863097 -0.036322
N 39.939901 1.530070 -0.019680
C 41.690966 3.477765 -0.043970
C 42.816591 2.739712 -0.034761
C 44.096889 3.403110 -0.043015
C 45.041339 2.468137 -0.031353
N 43.046581 1.399221 -0.018054
C 44.398313 1.165667 -0.015129
C 45.100526 0.000465 -0.000601
C 44.320486 -1.387070 0.016680
C 44.872591 -2.653174 0.032416
C 43.803974 -3.585797 0.044053
C 42.633067 -2.862168 0.035080
N 42.951760 -1.529140 0.018478
C 41.200695 -3.476835 0.042773
C 40.075070 -2.738782 0.033571
C 38.794772 -3.402179 0.041868
C 37.850322 -2.467207 0.030205
C 38.493348 -1.164737 0.013937
N 39.845080 -1.398291 0.016838
H 36.965867 2.889323 -0.036704
H 39.011057 4.663225 -0.058829
H 40.604714 0.759461 -0.010054
H 41.767854 4.559104 -0.057443
H 44.254035 4.466654 -0.056267
H 46.098233 2.662340 -0.033763
H 45.925794 -2.888397 0.035310
H 43.880604 -4.662298 0.057446
H 42.286946 -0.758530 0.008894
H 41.123806 -4.558173 0.056275
H 38.637626 -4.465723 0.055150
H 36.793428 -2.661410 0.032643
C 59.269517 0.000465 -0.000601
C 60.049557 1.388000 -0.017926
C 59.497452 2.654101 -0.033750
C 60.566069 3.586725 -0.045382
C 61.736977 2.863097 -0.036322
N 61.418284 1.530070 -0.019680
C 63.169349 3.477765 -0.043970
C 64.294974 2.739712 -0.034761
C 65.575272 3.403110 -0.043015
C 66.519722 2.468137 -0.031353
N 64.524963 1.399221 -0.018054
C 65.876695 1.165667 -0.015129
C 66.578909 0.000465 -0.000601
C 65.798869 -1.387070 0.016680
C 66.350974 -2.653174 0.032416
C 65.282357 -3.585797 0.044053
C 64.111449 -2.862168 0.035080
N 64.430142 -1.529140 0.018478
C 62.679077 -3.476835 0.042773
C 61.553453 -2.738782 0.033571
C 60.273155 -3.402179 0.041868
C 59.328704 -2.467207 0.030205
C 59.971731 -1.164737 0.013937
N 61.323463 -1.398291 0.016838
H 58.444249 2.889323 -0.036704
H 60.489439 4.663225 -0.058829
H 62.083097 0.759461 -0.010054
H 63.246237 4.559104 -0.057443
H 65.732418 4.466654 -0.056267
H 67.576616 2.662340 -0.033763
H 67.404177 -2.888397 0.035310
H 65.358986 -4.662298 0.057446
H 63.765329 -0.758530 0.008894
H 62.602189 -4.558173 0.056275
H 60.116009 -4.465723 0.055150
H 58.271810 -2.661410 0.032643
C 80.747900 0.000465 -0.000601
C 81.527940 1.388000 -0.017926
C 80.975835 2.654101 -0.033750
C 82.044452 3.586725 -0.045382
C 83.215360 2.863097 -0.036322
N 82.896667 1.530070 -0.019680
C 84.647732 3.477765 -0.043970
C 85.773357 2.739712 -0.034761
C 87.053654 3.403110 -0.043015
C 87.998105 2.468137 -0.031353
N 86.003346 1.399221 -0.018054
C 87.355078 1.165667 -0.015129
C 88.057292 0.000465 -0.000601
C 87.277252 -1.387070 0.016680
C 87.829357 -2.653174 0.032416
C 86.760740 -3.585797 0.044053
C 85.589832 -2.862168 0.035080
N 85.908525 -1.529140 0.018478
C 84.157460 -3.476835 0.042773
C 83.031835 -2.738782 0.033571
C 81.751538 -3.402179 0.041868
C 80.807087 -2.467207 0.030205
C 81.450113 -1.164737 0.013937
N 82.801846 -1.398291 0.016838
H 79.922632 2.889323 -0.036704
H 81.967822 4.663225 -0.058829
H 83.561480 0.759461 -0.010054
H 84.724620 4.559104 -0.057443
H 87.210801 4.466654 -0.056267
H 89.054998 2.662340 -0.033763
H 88.882559 -2.888397 0.035310
H 86.837369 -4.662298 0.057446
H 85.243712 -0.758530 0.008894
H 84.080572 -4.558173 0.056275
H 81.594392 -4.465723 0.055150
H 79.750193 -2.661410 0.032643
C 102.226283 0.000465 -0.000601
C 103.006323 1.388000 -0.017926
C 102.454218 2.654101 -0.033750
C 103.522835 3.586725 -0.045382
C 104.693742 2.863097 -0.036322
N 104.375049 1.530070 -0.019680
C 106.126114 3.477765 -0.043970
C 107.251739 2.739712 -0.034761
C 108.532037 3.403110 -0.043015
C 109.476488 2.468137 -0.031353
N 107.481729 1.399221 -0.018054
C 108.833461 1.165667 -0.015129
C 109.535675 0.000465 -0.000601
C 108.755635 -1.387070 0.016680
C 109.307740 -2.653174 0.032416
C 108.239123 -3.585797 0.044053
C 107.068215 -2.862168 0.035080
N 107.386908 -1.529140 0.018478
C 105.635843 -3.476835 0.042773
C 104.510218 -2.738782 0.033571
C 103.229920 -3.402179 0.041868
C 102.285470 -2.467207 0.030205
C 102.928496 -1.164737 0.013937
N 104.280228 -1.398291 0.016838
H 101.401015 2.889323 -0.036704
H 103.446205 4.663225 -0.058829
H 105.039863 0.759461 -0.010054
H 106.203003 4.559104 -0.057443
H 108.689183 4.466654 -0.056267
H 110.533381 2.662340 -0.033763
H 110.360942 -2.888397 0.035310
H 108.315752 -4.662298 0.057446
H 106.722094 -0.758530 0.008894
H 105.558955 -4.558173 0.056275
H 103.072775 -4.465723 0.055150
H 101.228576 -2.661410 0.032643
