120

Fe 11.371152 0.047497 0.003607
C 8.034589 -0.108573 -0.006806
C 8.698699 -1.260777 -0.134634
C 8.049020 -2.557518 -0.285024
C 8.990849 -3.481231 -0.332416
C 10.295678 -2.816810 -0.212948
N 10.117392 -1.405231 -0.092512
C 11.485881 -3.448536 -0.167769
C 12.779514 -2.732499 -0.017301
C 14.070058 -3.407297 0.167611
C 15.004773 -2.480821 0.225405
N 12.920132 -1.443444 -0.077269
C 14.319638 -1.203408 0.070004
C 14.914211 -0.000979 -0.000685
C 14.153197 1.256604 -0.179595
C 14.690165 2.401675 -0.581799
C 13.646430 3.406426 -0.539742
C 12.540412 2.809981 -0.110448
C 11.255304 3.511994 0.140755
C 11.274424 4.986795 0.298716
C 10.615161 5.812747 -0.627532
C 10.653863 7.202860 -0.482435
C 11.355418 7.776820 0.581540
C 12.021461 6.961586 1.501039
C 11.984667 5.570933 1.360115
C 10.090256 2.841992 0.229458
C 8.777897 3.422928 0.508241
C 7.916304 2.425856 0.455757
C 8.669286 1.208907 0.157474
N 9.937437 1.439015 0.024041
N 12.770171 1.421354 0.136575
C 11.524663 -4.923446 -0.259676
C 11.423674 -5.555597 -1.508572
C 11.461766 -6.950846 -1.593164
C 11.601682 -7.719379 -0.433564
C 11.703530 -7.093797 0.812686
C 11.665149 -5.698846 0.901538
H 6.951188 -0.137173 -0.009795
H 6.984694 -2.747235 -0.339548
H 8.805416 -4.543097 -0.430201
H 14.247477 -4.472147 0.239716
H 16.063443 -2.665305 0.350256
H 15.719505 2.569357 -0.868960
H 13.759280 4.453068 -0.791160
H 10.076301 5.379436 -1.461213
H 10.142591 7.835299 -1.196589
H 11.385318 8.853089 0.691835
H 12.567263 7.407347 2.322511
H 12.505757 4.949040 2.077734
H 8.533052 4.455137 0.721179
H 6.849028 2.507324 0.614632
H 11.315599 -4.968048 -2.412031
H 11.383202 -7.436309 -2.557287
H 11.631320 -8.799198 -0.500702
H 11.812128 -7.689806 1.709543
H 11.744786 -5.222561 1.871048
Fe 30.176241 -0.049597 0.001498
C 33.512804 0.106778 -0.002128
C 32.848695 1.263446 -0.079805
C 33.498374 2.565495 -0.173746
C 32.556545 3.490394 -0.180984
C 31.251716 2.821412 -0.090480
N 31.430002 1.405935 -0.031450
C 30.061512 3.450581 -0.017912
C 28.767880 2.728685 0.101323
C 27.477336 3.394817 0.315361
C 26.542621 2.466706 0.332871
N 28.627261 1.443450 -0.014562
C 27.227756 1.197245 0.122149
C 26.633183 -0.000979 -0.000685
C 27.394197 -1.249608 -0.234033
C 26.857229 -2.376135 -0.685579
C 27.900964 -3.381764 -0.687189
C 29.006982 -2.804522 -0.232402
C 30.292090 -3.516781 -0.011918
C 30.272970 -4.997050 0.081855
C 30.932233 -5.782004 -0.879384
C 30.893531 -7.177106 -0.794785
C 30.191976 -7.796724 0.243264
C 29.525932 -7.022185 1.197295
C 29.562727 -5.626725 1.116889
C 31.457138 -2.851262 0.105793
C 32.769497 -3.443756 0.359088
C 33.631090 -2.445345 0.349949
C 32.878108 -1.216592 0.104789
N 31.609957 -1.440689 -0.038510
N 28.777222 -1.427932 0.074685
C 30.022731 4.928090 -0.045689
C 30.123720 5.613875 -1.265958
C 30.085627 7.011481 -1.289886
C 29.945712 7.728937 -0.098009
C 29.843863 7.049830 1.119903
C 29.882245 5.652337 1.148099
H 34.596206 0.135481 -0.003872
H 34.562700 2.757400 -0.219981
H 32.741978 4.555505 -0.232569
H 27.299917 4.455533 0.433636
H 25.483950 2.645595 0.465615
H 25.827889 -2.531190 -0.979750
H 27.788114 -4.416502 -0.983818
H 31.471092 -5.312901 -1.693463
H 31.404803 -7.777939 -1.535727
H 30.162075 -8.876767 0.306721
H 28.980131 -7.503196 1.998636
H 29.041637 -5.036578 1.860835
H 33.014342 -4.484237 0.527005
H 34.698366 -2.533635 0.505136
H 30.231795 5.066110 -2.194078
H 30.164191 7.538350 -2.232019
H 29.916074 8.810652 -0.118196
H 29.735266 7.606334 2.041794
H 29.802608 5.134403 2.096014
C 16.277256 0.013711 0.009591
C 17.735482 -0.008126 -0.008283
C 18.869410 -0.028879 -0.009773
C 20.230792 -0.041469 -0.011964
C 21.505011 -0.031163 -0.016730
C 22.693473 -0.012365 -0.022886
C 24.045834 0.012420 -0.007018
C 25.146101 0.013711 0.009591
