 xtb: 6.5.1 (b24c23e)
          07292216073D

177206  0     0  0            999 V2000
   34.9364   -0.1049   -0.1214 Fe  0  0  0  0  0  0  0  0  0  0  0  0
   31.5492    0.0724   -0.0665 C   0  0  0  0  0  0  0  0  0  0  0  0
   32.2519    0.8723    0.8113 C   0  0  0  0  0  0  0  0  0  0  0  0
   31.6388    1.7825    1.7314 C   0  0  0  0  0  0  0  0  0  0  0  0
   32.6344    2.2869    2.4995 C   0  0  0  0  0  0  0  0  0  0  0  0
   33.8501    1.6806    2.0467 C   0  0  0  0  0  0  0  0  0  0  0  0
   33.6114    0.8453    0.9959 N   0  0  0  0  0  0  0  0  0  0  0  0
   35.0866    1.8581    2.6742 C   0  0  0  0  0  0  0  0  0  0  0  0
   35.1516    2.6902    3.8120 C   0  0  0  0  0  0  0  0  0  0  0  0
   35.2082    3.4212    4.7790 C   0  0  0  0  0  0  0  0  0  0  0  0
   35.2700    4.2811    5.8994 C   0  0  0  0  0  0  0  0  0  0  0  0
   36.4627    4.4701    6.6071 C   0  0  0  0  0  0  0  0  0  0  0  0
   36.4684    5.3271    7.6933 C   0  0  0  0  0  0  0  0  0  0  0  0
   35.3890    5.9879    8.1041 N   0  0  0  0  0  0  0  0  0  0  0  0
   34.2512    5.8137    7.4365 C   0  0  0  0  0  0  0  0  0  0  0  0
   34.1390    4.9796    6.3385 C   0  0  0  0  0  0  0  0  0  0  0  0
   36.2598    1.2544    2.2190 C   0  0  0  0  0  0  0  0  0  0  0  0
   37.5276    1.3927    2.8657 C   0  0  0  0  0  0  0  0  0  0  0  0
   38.4394    0.7852    2.0667 C   0  0  0  0  0  0  0  0  0  0  0  0
   36.3862    0.5408    1.0583 N   0  0  0  0  0  0  0  0  0  0  0  0
   37.7226    0.2836    0.9359 C   0  0  0  0  0  0  0  0  0  0  0  0
   38.3408   -0.2561   -0.1959 C   0  0  0  0  0  0  0  0  0  0  0  0
   37.6274   -0.7447   -1.2946 C   0  0  0  0  0  0  0  0  0  0  0  0
   38.2461   -1.3170   -2.4495 C   0  0  0  0  0  0  0  0  0  0  0  0
   37.2505   -1.8554   -3.1965 C   0  0  0  0  0  0  0  0  0  0  0  0
   36.0300   -1.6014   -2.4961 C   0  0  0  0  0  0  0  0  0  0  0  0
   36.2697   -0.8891   -1.3528 N   0  0  0  0  0  0  0  0  0  0  0  0
   34.7885   -2.0995   -2.8946 C   0  0  0  0  0  0  0  0  0  0  0  0
   34.7316   -2.9481   -4.0206 C   0  0  0  0  0  0  0  0  0  0  0  0
   34.6866   -3.6910   -4.9793 C   0  0  0  0  0  0  0  0  0  0  0  0
   34.6334   -4.5657   -6.0885 C   0  0  0  0  0  0  0  0  0  0  0  0
   35.7809   -4.8679   -6.8311 C   0  0  0  0  0  0  0  0  0  0  0  0
   35.6753   -5.7346   -7.9043 C   0  0  0  0  0  0  0  0  0  0  0  0
   34.5290   -6.3023   -8.2706 N   0  0  0  0  0  0  0  0  0  0  0  0
   33.4336   -6.0200   -7.5699 C   0  0  0  0  0  0  0  0  0  0  0  0
   33.4314   -5.1659   -6.4815 C   0  0  0  0  0  0  0  0  0  0  0  0
   33.5993   -1.7922   -2.2275 C   0  0  0  0  0  0  0  0  0  0  0  0
   32.3128   -2.2714   -2.6345 C   0  0  0  0  0  0  0  0  0  0  0  0
   31.4002   -1.6513   -1.8480 C   0  0  0  0  0  0  0  0  0  0  0  0
   32.1348   -0.8019   -0.9594 C   0  0  0  0  0  0  0  0  0  0  0  0
   33.4830   -0.9236   -1.1828 N   0  0  0  0  0  0  0  0  0  0  0  0
   30.4667    0.1316   -0.0508 H   0  0  0  0  0  0  0  0  0  0  0  0
   30.5812    1.9889    1.7743 H   0  0  0  0  0  0  0  0  0  0  0  0
   32.5690    2.9961    3.3091 H   0  0  0  0  0  0  0  0  0  0  0  0
   37.3652    3.9519    6.3063 H   0  0  0  0  0  0  0  0  0  0  0  0
   37.3794    5.4924    8.2612 H   0  0  0  0  0  0  0  0  0  0  0  0
   33.3905    6.3690    7.7980 H   0  0  0  0  0  0  0  0  0  0  0  0
   33.1930    4.8673    5.8228 H   0  0  0  0  0  0  0  0  0  0  0  0
   37.6850    1.8989    3.8046 H   0  0  0  0  0  0  0  0  0  0  0  0
   39.5038    0.6900    2.2101 H   0  0  0  0  0  0  0  0  0  0  0  0
   39.3068   -1.3145   -2.6428 H   0  0  0  0  0  0  0  0  0  0  0  0
   37.3213   -2.3839   -4.1335 H   0  0  0  0  0  0  0  0  0  0  0  0
   36.7350   -4.4283   -6.5664 H   0  0  0  0  0  0  0  0  0  0  0  0
   36.5493   -5.9876   -8.4975 H   0  0  0  0  0  0  0  0  0  0  0  0
   32.5157   -6.5005   -7.8962 H   0  0  0  0  0  0  0  0  0  0  0  0
   32.5162   -4.9638   -5.9383 H   0  0  0  0  0  0  0  0  0  0  0  0
   32.1476   -2.9804   -3.4300 H   0  0  0  0  0  0  0  0  0  0  0  0
   30.3258   -1.7430   -1.8578 H   0  0  0  0  0  0  0  0  0  0  0  0
   56.6086   -0.2701   -0.1728 Fe  0  0  0  0  0  0  0  0  0  0  0  0
   60.0025   -0.1600   -0.1539 C   0  0  0  0  0  0  0  0  0  0  0  0
   59.3981   -1.3737   -0.4093 C   0  0  0  0  0  0  0  0  0  0  0  0
   60.1172   -2.5830   -0.6767 C   0  0  0  0  0  0  0  0  0  0  0  0
   59.1948   -3.5718   -0.7592 C   0  0  0  0  0  0  0  0  0  0  0  0
   57.9179   -2.9614   -0.5422 C   0  0  0  0  0  0  0  0  0  0  0  0
   58.0486   -1.6170   -0.3583 N   0  0  0  0  0  0  0  0  0  0  0  0
   56.7213   -3.6789   -0.4550 C   0  0  0  0  0  0  0  0  0  0  0  0
   56.7681   -5.0834   -0.5835 C   0  0  0  0  0  0  0  0  0  0  0  0
   56.8097   -6.2902   -0.7049 C   0  0  0  0  0  0  0  0  0  0  0  0
   56.8553   -7.6955   -0.8519 C   0  0  0  0  0  0  0  0  0  0  0  0
   55.6936   -8.4716   -0.7653 C   0  0  0  0  0  0  0  0  0  0  0  0
   55.7910   -9.8430   -0.9201 C   0  0  0  0  0  0  0  0  0  0  0  0
   56.9426  -10.4689   -1.1493 N   0  0  0  0  0  0  0  0  0  0  0  0
   58.0515   -9.7383   -1.2328 C   0  0  0  0  0  0  0  0  0  0  0  0
   58.0625   -8.3618   -1.0928 C   0  0  0  0  0  0  0  0  0  0  0  0
   55.4831   -3.0672   -0.2560 C   0  0  0  0  0  0  0  0  0  0  0  0
   54.2525   -3.7877   -0.1514 C   0  0  0  0  0  0  0  0  0  0  0  0
   53.2648   -2.8610   -0.0881 C   0  0  0  0  0  0  0  0  0  0  0  0
   55.2564   -1.7177   -0.2236 N   0  0  0  0  0  0  0  0  0  0  0  0
   53.8990   -1.5815   -0.1531 C   0  0  0  0  0  0  0  0  0  0  0  0
   53.1976   -0.3754   -0.2534 C   0  0  0  0  0  0  0  0  0  0  0  0
   53.8283    0.8719   -0.3068 C   0  0  0  0  0  0  0  0  0  0  0  0
   53.1195    2.1114   -0.3807 C   0  0  0  0  0  0  0  0  0  0  0  0
   54.0411    3.0949   -0.2337 C   0  0  0  0  0  0  0  0  0  0  0  0
   55.3074    2.4491   -0.0791 C   0  0  0  0  0  0  0  0  0  0  0  0
   55.1686    1.0897   -0.1560 N   0  0  0  0  0  0  0  0  0  0  0  0
   56.4958    3.1310    0.1850 C   0  0  0  0  0  0  0  0  0  0  0  0
   56.4473    4.5303    0.3606 C   0  0  0  0  0  0  0  0  0  0  0  0
   56.4046    5.7313    0.5295 C   0  0  0  0  0  0  0  0  0  0  0  0
   56.3601    7.1297    0.7319 C   0  0  0  0  0  0  0  0  0  0  0  0
   55.1575    7.8398    0.6380 C   0  0  0  0  0  0  0  0  0  0  0  0
   55.1690    9.2072    0.8485 C   0  0  0  0  0  0  0  0  0  0  0  0
   56.2741    9.8892    1.1384 N   0  0  0  0  0  0  0  0  0  0  0  0
   57.4214    9.2214    1.2295 C   0  0  0  0  0  0  0  0  0  0  0  0
   57.5180    7.8548    1.0370 C   0  0  0  0  0  0  0  0  0  0  0  0
   57.7348    2.4903    0.2756 C   0  0  0  0  0  0  0  0  0  0  0  0
   58.9675    3.1789    0.5142 C   0  0  0  0  0  0  0  0  0  0  0  0
   59.9545    2.2572    0.4060 C   0  0  0  0  0  0  0  0  0  0  0  0
   59.3185    1.0090    0.1093 C   0  0  0  0  0  0  0  0  0  0  0  0
   57.9559    1.1624    0.0595 N   0  0  0  0  0  0  0  0  0  0  0  0
   61.0862   -0.1241   -0.1526 H   0  0  0  0  0  0  0  0  0  0  0  0
   61.1890   -2.6478   -0.7764 H   0  0  0  0  0  0  0  0  0  0  0  0
   59.3472   -4.6236   -0.9417 H   0  0  0  0  0  0  0  0  0  0  0  0
   54.7350   -8.0021   -0.5803 H   0  0  0  0  0  0  0  0  0  0  0  0
   54.9060  -10.4697   -0.8581 H   0  0  0  0  0  0  0  0  0  0  0  0
   58.9732  -10.2813   -1.4209 H   0  0  0  0  0  0  0  0  0  0  0  0
   58.9888   -7.8052   -1.1687 H   0  0  0  0  0  0  0  0  0  0  0  0
   54.1701   -4.8627   -0.1393 H   0  0  0  0  0  0  0  0  0  0  0  0
   52.2004   -3.0162   -0.0161 H   0  0  0  0  0  0  0  0  0  0  0  0
   52.0533    2.2022   -0.5121 H   0  0  0  0  0  0  0  0  0  0  0  0
   53.8920    4.1626   -0.2239 H   0  0  0  0  0  0  0  0  0  0  0  0
   54.2344    7.3234    0.4044 H   0  0  0  0  0  0  0  0  0  0  0  0
   54.2507    9.7836    0.7820 H   0  0  0  0  0  0  0  0  0  0  0  0
   58.3033    9.8090    1.4676 H   0  0  0  0  0  0  0  0  0  0  0  0
   58.4729    7.3501    1.1210 H   0  0  0  0  0  0  0  0  0  0  0  0
   59.0487    4.2335    0.7234 H   0  0  0  0  0  0  0  0  0  0  0  0
   61.0195    2.3915    0.5095 H   0  0  0  0  0  0  0  0  0  0  0  0
   39.7464   -0.3158   -0.2294 C   0  0  0  0  0  0  0  0  0  0  0  0
   40.9619   -0.3697   -0.2608 C   0  0  0  0  0  0  0  0  0  0  0  0
   50.5757   -0.4487   -0.3231 C   0  0  0  0  0  0  0  0  0  0  0  0
   51.7925   -0.4176   -0.2921 C   0  0  0  0  0  0  0  0  0  0  0  0
   45.7669   -0.5451   -0.3865 Fe  0  0  0  0  0  0  0  0  0  0  0  0
   42.3661   -0.4353   -0.3033 C   0  0  0  0  0  0  0  0  0  0  0  0
   43.0195   -0.0297   -1.4728 C   0  0  0  0  0  0  0  0  0  0  0  0
   42.3471    0.4202   -2.6510 C   0  0  0  0  0  0  0  0  0  0  0  0
   43.3046    0.8940   -3.4877 C   0  0  0  0  0  0  0  0  0  0  0  0
   44.5534    0.7392   -2.8092 C   0  0  0  0  0  0  0  0  0  0  0  0
   44.3699    0.1280   -1.5992 N   0  0  0  0  0  0  0  0  0  0  0  0
   45.7587    1.2879   -3.2549 C   0  0  0  0  0  0  0  0  0  0  0  0
   45.7569    2.0374   -4.4499 C   0  0  0  0  0  0  0  0  0  0  0  0
   45.7476    2.6829   -5.4777 C   0  0  0  0  0  0  0  0  0  0  0  0
   45.7442    3.4407   -6.6710 C   0  0  0  0  0  0  0  0  0  0  0  0
   46.9029    4.0822   -7.1244 C   0  0  0  0  0  0  0  0  0  0  0  0
   46.8480    4.8133   -8.2976 C   0  0  0  0  0  0  0  0  0  0  0  0
   45.7408    4.9390   -9.0246 N   0  0  0  0  0  0  0  0  0  0  0  0
   44.6353    4.3319   -8.6008 C   0  0  0  0  0  0  0  0  0  0  0  0
   44.5838    3.5781   -7.4416 C   0  0  0  0  0  0  0  0  0  0  0  0
   46.9601    1.1520   -2.5534 C   0  0  0  0  0  0  0  0  0  0  0  0
   48.1887    1.7726   -2.9382 C   0  0  0  0  0  0  0  0  0  0  0  0
   49.1433    1.2971   -2.0992 C   0  0  0  0  0  0  0  0  0  0  0  0
   47.1515    0.3350   -1.4743 N   0  0  0  0  0  0  0  0  0  0  0  0
   48.4925    0.3804   -1.2163 C   0  0  0  0  0  0  0  0  0  0  0  0
   49.1713   -0.4894   -0.3549 C   0  0  0  0  0  0  0  0  0  0  0  0
   48.5097   -1.4202    0.4560 C   0  0  0  0  0  0  0  0  0  0  0  0
   49.1749   -2.3688    1.2927 C   0  0  0  0  0  0  0  0  0  0  0  0
   48.2144   -2.9707    2.0385 C   0  0  0  0  0  0  0  0  0  0  0  0
   46.9710   -2.3747    1.6612 C   0  0  0  0  0  0  0  0  0  0  0  0
   47.1605   -1.4623    0.6592 N   0  0  0  0  0  0  0  0  0  0  0  0
   45.7684   -2.5811    2.3414 C   0  0  0  0  0  0  0  0  0  0  0  0
   45.7625   -3.4500    3.4526 C   0  0  0  0  0  0  0  0  0  0  0  0
   45.7566   -4.2037    4.4038 C   0  0  0  0  0  0  0  0  0  0  0  0
   45.7508   -5.0824    5.5112 C   0  0  0  0  0  0  0  0  0  0  0  0
   44.5891   -5.2944    6.2628 C   0  0  0  0  0  0  0  0  0  0  0  0
   44.6366   -6.1645    7.3375 C   0  0  0  0  0  0  0  0  0  0  0  0
   45.7393   -6.8166    7.6966 N   0  0  0  0  0  0  0  0  0  0  0  0
   46.8475   -6.6210    6.9868 C   0  0  0  0  0  0  0  0  0  0  0  0
   46.9064   -5.7725    5.8956 C   0  0  0  0  0  0  0  0  0  0  0  0
   44.5757   -1.9447    1.9846 C   0  0  0  0  0  0  0  0  0  0  0  0
   43.3550   -2.0547    2.7199 C   0  0  0  0  0  0  0  0  0  0  0  0
   42.4046   -1.4148    1.9927 C   0  0  0  0  0  0  0  0  0  0  0  0
   43.0495   -0.9327    0.8114 C   0  0  0  0  0  0  0  0  0  0  0  0
   44.3853   -1.2203    0.8418 N   0  0  0  0  0  0  0  0  0  0  0  0
   41.2802    0.3827   -2.8015 H   0  0  0  0  0  0  0  0  0  0  0  0
   43.1881    1.3275   -4.4679 H   0  0  0  0  0  0  0  0  0  0  0  0
   47.8256    4.0055   -6.5621 H   0  0  0  0  0  0  0  0  0  0  0  0
   47.7313    5.3221   -8.6728 H   0  0  0  0  0  0  0  0  0  0  0  0
   43.7507    4.4553   -9.2187 H   0  0  0  0  0  0  0  0  0  0  0  0
   43.6620    3.1002   -7.1327 H   0  0  0  0  0  0  0  0  0  0  0  0
   48.2943    2.4736   -3.7505 H   0  0  0  0  0  0  0  0  0  0  0  0
   50.1976    1.5220   -2.0832 H   0  0  0  0  0  0  0  0  0  0  0  0
   50.2398   -2.5363    1.3061 H   0  0  0  0  0  0  0  0  0  0  0  0
   48.3260   -3.7337    2.7920 H   0  0  0  0  0  0  0  0  0  0  0  0
   43.6697   -4.7833    6.0042 H   0  0  0  0  0  0  0  0  0  0  0  0
   43.7508   -6.3481    7.9386 H   0  0  0  0  0  0  0  0  0  0  0  0
   47.7284   -7.1694    7.3078 H   0  0  0  0  0  0  0  0  0  0  0  0
   47.8300   -5.6421    5.3448 H   0  0  0  0  0  0  0  0  0  0  0  0
   43.2516   -2.5624    3.6655 H   0  0  0  0  0  0  0  0  0  0  0  0
   41.3564   -1.2927    2.2133 H   0  0  0  0  0  0  0  0  0  0  0  0
  2  3  4  0  0  0  0
  3  4  4  0  0  0  0
  4  5  2  0  0  0  0
  5  6  4  0  0  0  0
  1  7  1  0  0  0  0
  3  7  4  0  0  0  0
  6  7  4  0  0  0  0
  6  8  4  0  0  0  0
  8  9  1  0  0  0  0
  9 10  3  0  0  0  0
 10 11  1  0  0  0  0
 11 12  4  0  0  0  0
 12 13  4  0  0  0  0
 13 14  4  0  0  0  0
 14 15  4  0  0  0  0
 11 16  4  0  0  0  0
 15 16  4  0  0  0  0
  8 17  4  0  0  0  0
 17 18  4  0  0  0  0
 18 19  2  0  0  0  0
  1 20  1  0  0  0  0
 17 20  4  0  0  0  0
 19 21  4  0  0  0  0
 20 21  4  0  0  0  0
 21 22  4  0  0  0  0
 22 23  4  0  0  0  0
 23 24  4  0  0  0  0
 24 25  2  0  0  0  0
 25 26  4  0  0  0  0
  1 27  1  0  0  0  0
 23 27  4  0  0  0  0
 26 27  4  0  0  0  0
 26 28  4  0  0  0  0
 28 29  1  0  0  0  0
 29 30  3  0  0  0  0
 30 31  1  0  0  0  0
 31 32  4  0  0  0  0
 32 33  4  0  0  0  0
 33 34  4  0  0  0  0
 34 35  4  0  0  0  0
 31 36  4  0  0  0  0
 35 36  4  0  0  0  0
 28 37  4  0  0  0  0
 37 38  4  0  0  0  0
 38 39  2  0  0  0  0
  2 40  4  0  0  0  0
 39 40  4  0  0  0  0
  1 41  1  0  0  0  0
 37 41  4  0  0  0  0
 40 41  4  0  0  0  0
  2 42  1  0  0  0  0
  4 43  1  0  0  0  0
  5 44  1  0  0  0  0
 12 45  1  0  0  0  0
 13 46  1  0  0  0  0
 15 47  1  0  0  0  0
 16 48  1  0  0  0  0
 18 49  1  0  0  0  0
 19 50  1  0  0  0  0
 24 51  1  0  0  0  0
 25 52  1  0  0  0  0
 32 53  1  0  0  0  0
 33 54  1  0  0  0  0
 35 55  1  0  0  0  0
 36 56  1  0  0  0  0
 38 57  1  0  0  0  0
 39 58  1  0  0  0  0
 60 61  4  0  0  0  0
 61 62  4  0  0  0  0
 62 63  2  0  0  0  0
 63 64  4  0  0  0  0
 59 65  1  0  0  0  0
 61 65  4  0  0  0  0
 64 65  4  0  0  0  0
 64 66  4  0  0  0  0
 66 67  1  0  0  0  0
 67 68  3  0  0  0  0
 68 69  1  0  0  0  0
 69 70  4  0  0  0  0
 70 71  4  0  0  0  0
 71 72  4  0  0  0  0
 72 73  4  0  0  0  0
 69 74  4  0  0  0  0
 73 74  4  0  0  0  0
 66 75  4  0  0  0  0
 75 76  4  0  0  0  0
 76 77  2  0  0  0  0
 59 78  1  0  0  0  0
 75 78  4  0  0  0  0
 77 79  4  0  0  0  0
 78 79  4  0  0  0  0
 79 80  4  0  0  0  0
 80 81  4  0  0  0  0
 81 82  4  0  0  0  0
 82 83  2  0  0  0  0
 83 84  4  0  0  0  0
 59 85  1  0  0  0  0
 81 85  4  0  0  0  0
 84 85  4  0  0  0  0
 84 86  4  0  0  0  0
 86 87  1  0  0  0  0
 87 88  3  0  0  0  0
 88 89  1  0  0  0  0
 89 90  4  0  0  0  0
 90 91  4  0  0  0  0
 91 92  4  0  0  0  0
 92 93  4  0  0  0  0
 89 94  4  0  0  0  0
 93 94  4  0  0  0  0
 86 95  4  0  0  0  0
 95 96  4  0  0  0  0
 96 97  2  0  0  0  0
 60 98  4  0  0  0  0
 97 98  4  0  0  0  0
 59 99  1  0  0  0  0
 95 99  4  0  0  0  0
 98 99  4  0  0  0  0
 60100  1  0  0  0  0
 62101  1  0  0  0  0
 63102  1  0  0  0  0
 70103  1  0  0  0  0
 71104  1  0  0  0  0
 73105  1  0  0  0  0
 74106  1  0  0  0  0
 76107  1  0  0  0  0
 77108  1  0  0  0  0
 82109  1  0  0  0  0
 83110  1  0  0  0  0
 90111  1  0  0  0  0
 91112  1  0  0  0  0
 93113  1  0  0  0  0
 94114  1  0  0  0  0
 96115  1  0  0  0  0
 97116  1  0  0  0  0
 22117  1  0  0  0  0
117118  3  0  0  0  0
 80120  1  0  0  0  0
119120  3  0  0  0  0
118122  1  0  0  0  0
122123  4  0  0  0  0
123124  4  0  0  0  0
124125  2  0  0  0  0
125126  4  0  0  0  0
121127  1  0  0  0  0
123127  4  0  0  0  0
126127  4  0  0  0  0
126128  4  0  0  0  0
128129  1  0  0  0  0
129130  3  0  0  0  0
130131  1  0  0  0  0
131132  4  0  0  0  0
132133  4  0  0  0  0
133134  4  0  0  0  0
134135  4  0  0  0  0
131136  4  0  0  0  0
135136  4  0  0  0  0
128137  4  0  0  0  0
137138  4  0  0  0  0
138139  2  0  0  0  0
121140  1  0  0  0  0
137140  4  0  0  0  0
139141  4  0  0  0  0
140141  4  0  0  0  0
119142  1  0  0  0  0
141142  4  0  0  0  0
142143  4  0  0  0  0
143144  4  0  0  0  0
144145  2  0  0  0  0
145146  4  0  0  0  0
121147  1  0  0  0  0
143147  4  0  0  0  0
146147  4  0  0  0  0
146148  4  0  0  0  0
148149  1  0  0  0  0
149150  3  0  0  0  0
150151  1  0  0  0  0
151152  4  0  0  0  0
152153  4  0  0  0  0
153154  4  0  0  0  0
154155  4  0  0  0  0
151156  4  0  0  0  0
155156  4  0  0  0  0
148157  4  0  0  0  0
157158  4  0  0  0  0
158159  2  0  0  0  0
122160  4  0  0  0  0
159160  4  0  0  0  0
121161  1  0  0  0  0
157161  4  0  0  0  0
160161  4  0  0  0  0
124162  1  0  0  0  0
125163  1  0  0  0  0
132164  1  0  0  0  0
133165  1  0  0  0  0
135166  1  0  0  0  0
136167  1  0  0  0  0
138168  1  0  0  0  0
139169  1  0  0  0  0
144170  1  0  0  0  0
145171  1  0  0  0  0
152172  1  0  0  0  0
153173  1  0  0  0  0
155174  1  0  0  0  0
156175  1  0  0  0  0
158176  1  0  0  0  0
159177  1  0  0  0  0
M  END
