 xtb: 6.5.1 (b24c23e)
          07292221473D

193222  0     0  0            999 V2000
   36.0182   -0.0463    0.0232 Fe  0  0  0  0  0  0  0  0  0  0  0  0
   32.6303    0.0543    0.0382 C   0  0  0  0  0  0  0  0  0  0  0  0
   33.2770   -0.1580    1.2385 C   0  0  0  0  0  0  0  0  0  0  0  0
   32.5981   -0.3668    2.4818 C   0  0  0  0  0  0  0  0  0  0  0  0
   33.5525   -0.4332    3.4392 C   0  0  0  0  0  0  0  0  0  0  0  0
   34.8153   -0.2632    2.7795 C   0  0  0  0  0  0  0  0  0  0  0  0
   34.6328   -0.1154    1.4304 N   0  0  0  0  0  0  0  0  0  0  0  0
   36.0272   -0.1260    3.4455 C   0  0  0  0  0  0  0  0  0  0  0  0
   37.2311    0.0864    2.7877 C   0  0  0  0  0  0  0  0  0  0  0  0
   38.4909    0.2375    3.4531 C   0  0  0  0  0  0  0  0  0  0  0  0
   39.4392    0.2953    2.4877 C   0  0  0  0  0  0  0  0  0  0  0  0
   37.4097    0.0769    1.4251 N   0  0  0  0  0  0  0  0  0  0  0  0
   38.7594    0.1659    1.2367 C   0  0  0  0  0  0  0  0  0  0  0  0
   39.4236    0.0273    0.0152 C   0  0  0  0  0  0  0  0  0  0  0  0
   38.7535   -0.1366   -1.2003 C   0  0  0  0  0  0  0  0  0  0  0  0
   39.4221   -0.3368   -2.4477 C   0  0  0  0  0  0  0  0  0  0  0  0
   38.4653   -0.3279   -3.4071 C   0  0  0  0  0  0  0  0  0  0  0  0
   37.2151   -0.1106   -2.7423 C   0  0  0  0  0  0  0  0  0  0  0  0
   36.0040    0.0603   -3.4004 C   0  0  0  0  0  0  0  0  0  0  0  0
   35.9985    0.0849   -4.8812 C   0  0  0  0  0  0  0  0  0  0  0  0
   35.2804   -0.8712   -5.6042 C   0  0  0  0  0  0  0  0  0  0  0  0
   35.2737   -0.8398   -6.9866 C   0  0  0  0  0  0  0  0  0  0  0  0
   35.9788    0.1518   -7.6715 C   0  0  0  0  0  0  0  0  0  0  0  0
   35.9319    0.1505   -9.1535 C   0  0  0  0  0  0  0  0  0  0  0  0
   36.6332    1.1477   -9.7134 O   0  0  0  0  0  0  0  0  0  0  0  0
   35.3276   -0.6555   -9.8140 O   0  0  0  0  0  0  0  0  0  0  0  0
   36.6975    1.1085   -6.9539 C   0  0  0  0  0  0  0  0  0  0  0  0
   36.7086    1.0710   -5.5707 C   0  0  0  0  0  0  0  0  0  0  0  0
   34.7975    0.2173   -2.7282 C   0  0  0  0  0  0  0  0  0  0  0  0
   33.5392    0.4501   -3.3770 C   0  0  0  0  0  0  0  0  0  0  0  0
   32.5935    0.4509   -2.4085 C   0  0  0  0  0  0  0  0  0  0  0  0
   33.2746    0.2269   -1.1690 C   0  0  0  0  0  0  0  0  0  0  0  0
   34.6272    0.1335   -1.3720 N   0  0  0  0  0  0  0  0  0  0  0  0
   37.4046   -0.0342   -1.3841 N   0  0  0  0  0  0  0  0  0  0  0  0
   36.0300   -0.2036    4.9264 C   0  0  0  0  0  0  0  0  0  0  0  0
   35.7180   -1.4048    5.5673 C   0  0  0  0  0  0  0  0  0  0  0  0
   35.7195   -1.4783    6.9482 C   0  0  0  0  0  0  0  0  0  0  0  0
   36.0267   -0.3509    7.7121 C   0  0  0  0  0  0  0  0  0  0  0  0
   36.0096   -0.4782    9.1894 C   0  0  0  0  0  0  0  0  0  0  0  0
   36.3146    0.6603    9.8299 O   0  0  0  0  0  0  0  0  0  0  0  0
   35.7493   -1.4947    9.7812 O   0  0  0  0  0  0  0  0  0  0  0  0
   36.3362    0.8514    7.0757 C   0  0  0  0  0  0  0  0  0  0  0  0
   36.3400    0.9215    5.6933 C   0  0  0  0  0  0  0  0  0  0  0  0
   31.5466    0.0793    0.0430 H   0  0  0  0  0  0  0  0  0  0  0  0
   31.5276   -0.4418    2.5889 H   0  0  0  0  0  0  0  0  0  0  0  0
   33.4253   -0.5668    4.5012 H   0  0  0  0  0  0  0  0  0  0  0  0
   38.6241    0.2764    4.5218 H   0  0  0  0  0  0  0  0  0  0  0  0
   40.5069    0.3960    2.5974 H   0  0  0  0  0  0  0  0  0  0  0  0
   40.4865   -0.4667   -2.5590 H   0  0  0  0  0  0  0  0  0  0  0  0
   38.5844   -0.4618   -4.4699 H   0  0  0  0  0  0  0  0  0  0  0  0
   34.7402   -1.6474   -5.0744 H   0  0  0  0  0  0  0  0  0  0  0  0
   34.7227   -1.5813   -7.5546 H   0  0  0  0  0  0  0  0  0  0  0  0
   36.5495    1.0791  -10.6783 H   0  0  0  0  0  0  0  0  0  0  0  0
   37.2444    1.8810   -7.4813 H   0  0  0  0  0  0  0  0  0  0  0  0
   37.2569    1.8215   -5.0125 H   0  0  0  0  0  0  0  0  0  0  0  0
   33.4098    0.5955   -4.4371 H   0  0  0  0  0  0  0  0  0  0  0  0
   31.5278    0.5844   -2.5049 H   0  0  0  0  0  0  0  0  0  0  0  0
   35.4877   -2.2828    4.9747 H   0  0  0  0  0  0  0  0  0  0  0  0
   35.4834   -2.4084    7.4535 H   0  0  0  0  0  0  0  0  0  0  0  0
   36.2803    0.4939   10.7859 H   0  0  0  0  0  0  0  0  0  0  0  0
   36.5717    1.7295    7.6652 H   0  0  0  0  0  0  0  0  0  0  0  0
   36.5694    1.8582    5.1982 H   0  0  0  0  0  0  0  0  0  0  0  0
   62.8351   -0.0166   -0.0404 Fe  0  0  0  0  0  0  0  0  0  0  0  0
   66.2209    0.0928   -0.0530 C   0  0  0  0  0  0  0  0  0  0  0  0
   65.5712    0.0133   -1.2681 C   0  0  0  0  0  0  0  0  0  0  0  0
   66.2456   -0.0538   -2.5294 C   0  0  0  0  0  0  0  0  0  0  0  0
   65.2877   -0.0084   -3.4850 C   0  0  0  0  0  0  0  0  0  0  0  0
   64.0277    0.0887   -2.8057 C   0  0  0  0  0  0  0  0  0  0  0  0
   64.2150    0.0777   -1.4495 N   0  0  0  0  0  0  0  0  0  0  0  0
   62.8144    0.3135   -3.4458 C   0  0  0  0  0  0  0  0  0  0  0  0
   61.6147    0.4559   -2.7622 C   0  0  0  0  0  0  0  0  0  0  0  0
   60.3538    0.7013   -3.3969 C   0  0  0  0  0  0  0  0  0  0  0  0
   59.4092    0.6402   -2.4279 C   0  0  0  0  0  0  0  0  0  0  0  0
   61.4399    0.2723   -1.4114 N   0  0  0  0  0  0  0  0  0  0  0  0
   60.0922    0.3434   -1.2076 C   0  0  0  0  0  0  0  0  0  0  0  0
   59.4308    0.0344   -0.0147 C   0  0  0  0  0  0  0  0  0  0  0  0
   60.1061   -0.2919    1.1658 C   0  0  0  0  0  0  0  0  0  0  0  0
   59.4440   -0.6627    2.3770 C   0  0  0  0  0  0  0  0  0  0  0  0
   60.4037   -0.7671    3.3281 C   0  0  0  0  0  0  0  0  0  0  0  0
   61.6490   -0.4483    2.6956 C   0  0  0  0  0  0  0  0  0  0  0  0
   62.8595   -0.3409    3.3678 C   0  0  0  0  0  0  0  0  0  0  0  0
   62.8716   -0.4997    4.8401 C   0  0  0  0  0  0  0  0  0  0  0  0
   63.6114   -1.5240    5.4367 C   0  0  0  0  0  0  0  0  0  0  0  0
   63.6257   -1.6636    6.8123 C   0  0  0  0  0  0  0  0  0  0  0  0
   62.9070   -0.7774    7.6170 C   0  0  0  0  0  0  0  0  0  0  0  0
   62.9626   -0.9612    9.0874 C   0  0  0  0  0  0  0  0  0  0  0  0
   62.2500   -0.0519    9.7690 O   0  0  0  0  0  0  0  0  0  0  0  0
   63.5821   -1.8339    9.6405 O   0  0  0  0  0  0  0  0  0  0  0  0
   62.1668    0.2469    7.0259 C   0  0  0  0  0  0  0  0  0  0  0  0
   62.1475    0.3801    5.6486 C   0  0  0  0  0  0  0  0  0  0  0  0
   64.0613   -0.0826    2.7177 C   0  0  0  0  0  0  0  0  0  0  0  0
   65.3184    0.0901    3.3871 C   0  0  0  0  0  0  0  0  0  0  0  0
   66.2613    0.2146    2.4236 C   0  0  0  0  0  0  0  0  0  0  0  0
   65.5793    0.1262    1.1676 C   0  0  0  0  0  0  0  0  0  0  0  0
   64.2286   -0.0059    1.3611 N   0  0  0  0  0  0  0  0  0  0  0  0
   61.4539   -0.2003    1.3587 N   0  0  0  0  0  0  0  0  0  0  0  0
   62.8050    0.4094   -4.9255 C   0  0  0  0  0  0  0  0  0  0  0  0
   63.1034   -0.7126   -5.7021 C   0  0  0  0  0  0  0  0  0  0  0  0
   63.0933   -0.6272   -7.0822 C   0  0  0  0  0  0  0  0  0  0  0  0
   62.7909    0.5828   -7.7096 C   0  0  0  0  0  0  0  0  0  0  0  0
   62.7989    0.6258   -9.1918 C   0  0  0  0  0  0  0  0  0  0  0  0
   62.4976    1.8321   -9.6954 O   0  0  0  0  0  0  0  0  0  0  0  0
   63.0495   -0.3174   -9.8982 O   0  0  0  0  0  0  0  0  0  0  0  0
   62.4951    1.7064   -6.9374 C   0  0  0  0  0  0  0  0  0  0  0  0
   62.5001    1.6174   -5.5560 C   0  0  0  0  0  0  0  0  0  0  0  0
   67.3045    0.1232   -0.0578 H   0  0  0  0  0  0  0  0  0  0  0  0
   67.3155   -0.1183   -2.6482 H   0  0  0  0  0  0  0  0  0  0  0  0
   65.4112   -0.0196   -4.5557 H   0  0  0  0  0  0  0  0  0  0  0  0
   60.2171    0.8795   -4.4510 H   0  0  0  0  0  0  0  0  0  0  0  0
   58.3419    0.7622   -2.5192 H   0  0  0  0  0  0  0  0  0  0  0  0
   58.3815   -0.8186    2.4721 H   0  0  0  0  0  0  0  0  0  0  0  0
   60.2897   -1.0398    4.3646 H   0  0  0  0  0  0  0  0  0  0  0  0
   64.1626   -2.2184    4.8129 H   0  0  0  0  0  0  0  0  0  0  0  0
   64.1936   -2.4590    7.2823 H   0  0  0  0  0  0  0  0  0  0  0  0
   62.3393   -0.2386   10.7177 H   0  0  0  0  0  0  0  0  0  0  0  0
   61.6096    0.9383    7.6469 H   0  0  0  0  0  0  0  0  0  0  0  0
   61.5824    1.1834    5.1895 H   0  0  0  0  0  0  0  0  0  0  0  0
   65.4491    0.1143    4.4568 H   0  0  0  0  0  0  0  0  0  0  0  0
   67.3255    0.3495    2.5334 H   0  0  0  0  0  0  0  0  0  0  0  0
   63.3296   -1.6546   -5.2156 H   0  0  0  0  0  0  0  0  0  0  0  0
   63.3186   -1.4949   -7.6925 H   0  0  0  0  0  0  0  0  0  0  0  0
   62.5266    1.7767  -10.6644 H   0  0  0  0  0  0  0  0  0  0  0  0
   62.2632    2.6481   -7.4206 H   0  0  0  0  0  0  0  0  0  0  0  0
   62.2814    2.4929   -4.9552 H   0  0  0  0  0  0  0  0  0  0  0  0
   42.0521    0.0483    0.0076 C   0  0  0  0  0  0  0  0  0  0  0  0
   40.8305    0.0362    0.0093 C   0  0  0  0  0  0  0  0  0  0  0  0
   43.4031    0.0560   -0.0007 C   0  0  0  0  0  0  0  0  0  0  0  0
   44.6249    0.0621   -0.0013 C   0  0  0  0  0  0  0  0  0  0  0  0
   55.4539    0.0420   -0.0049 C   0  0  0  0  0  0  0  0  0  0  0  0
   54.2314    0.0447   -0.0096 C   0  0  0  0  0  0  0  0  0  0  0  0
   56.8035    0.0378   -0.0068 C   0  0  0  0  0  0  0  0  0  0  0  0
   58.0259    0.0351   -0.0072 C   0  0  0  0  0  0  0  0  0  0  0  0
   49.4289    0.0505   -0.0658 Fe  0  0  0  0  0  0  0  0  0  0  0  0
   46.0304    0.0602   -0.0050 C   0  0  0  0  0  0  0  0  0  0  0  0
   46.6995   -1.1497   -0.2212 C   0  0  0  0  0  0  0  0  0  0  0  0
   46.0429   -2.3910   -0.4862 C   0  0  0  0  0  0  0  0  0  0  0  0
   46.9965   -3.3538   -0.4361 C   0  0  0  0  0  0  0  0  0  0  0  0
   48.2315   -2.6964   -0.1292 C   0  0  0  0  0  0  0  0  0  0  0  0
   48.0406   -1.3397   -0.0545 N   0  0  0  0  0  0  0  0  0  0  0  0
   49.4240   -3.3497    0.1634 C   0  0  0  0  0  0  0  0  0  0  0  0
   50.6153   -2.6712    0.3955 C   0  0  0  0  0  0  0  0  0  0  0  0
   51.8484   -3.2987    0.7664 C   0  0  0  0  0  0  0  0  0  0  0  0
   52.8041   -2.3379    0.7244 C   0  0  0  0  0  0  0  0  0  0  0  0
   50.8072   -1.3253    0.2044 N   0  0  0  0  0  0  0  0  0  0  0  0
   52.1509   -1.1270    0.3372 C   0  0  0  0  0  0  0  0  0  0  0  0
   52.8277    0.0475   -0.0108 C   0  0  0  0  0  0  0  0  0  0  0  0
   52.1568    1.2243   -0.3648 C   0  0  0  0  0  0  0  0  0  0  0  0
   52.8119    2.4273   -0.7715 C   0  0  0  0  0  0  0  0  0  0  0  0
   51.8588    3.3909   -0.8218 C   0  0  0  0  0  0  0  0  0  0  0  0
   50.6258    2.7733   -0.4346 C   0  0  0  0  0  0  0  0  0  0  0  0
   49.4361    3.4561   -0.2054 C   0  0  0  0  0  0  0  0  0  0  0  0
   49.4407    4.9330   -0.2883 C   0  0  0  0  0  0  0  0  0  0  0  0
   50.2880    5.6826    0.5328 C   0  0  0  0  0  0  0  0  0  0  0  0
   50.2913    7.0630    0.4573 C   0  0  0  0  0  0  0  0  0  0  0  0
   49.4524    7.7203   -0.4446 C   0  0  0  0  0  0  0  0  0  0  0  0
   49.4958    9.2020   -0.4915 C   0  0  0  0  0  0  0  0  0  0  0  0
   48.6533    9.7353   -1.3885 O   0  0  0  0  0  0  0  0  0  0  0  0
   50.2106    9.8829    0.1987 O   0  0  0  0  0  0  0  0  0  0  0  0
   48.6069    6.9769   -1.2685 C   0  0  0  0  0  0  0  0  0  0  0  0
   48.6005    5.5954   -1.1872 C   0  0  0  0  0  0  0  0  0  0  0  0
   48.2441    2.8071    0.0991 C   0  0  0  0  0  0  0  0  0  0  0  0
   47.0115    3.4712    0.4019 C   0  0  0  0  0  0  0  0  0  0  0  0
   46.0547    2.5123    0.4601 C   0  0  0  0  0  0  0  0  0  0  0  0
   46.7069    1.2664    0.2052 C   0  0  0  0  0  0  0  0  0  0  0  0
   48.0513    1.4488    0.0517 N   0  0  0  0  0  0  0  0  0  0  0  0
   50.8171    1.4325   -0.2126 N   0  0  0  0  0  0  0  0  0  0  0  0
   49.4269   -4.8280    0.2251 C   0  0  0  0  0  0  0  0  0  0  0  0
   48.5993   -5.5014    1.1277 C   0  0  0  0  0  0  0  0  0  0  0  0
   48.6061   -6.8829    1.1827 C   0  0  0  0  0  0  0  0  0  0  0  0
   49.4342   -7.6170    0.3317 C   0  0  0  0  0  0  0  0  0  0  0  0
   49.4010   -9.0971    0.4240 C   0  0  0  0  0  0  0  0  0  0  0  0
   50.2289   -9.7066   -0.4371 O   0  0  0  0  0  0  0  0  0  0  0  0
   48.7057   -9.7146    1.1896 O   0  0  0  0  0  0  0  0  0  0  0  0
   50.2603   -6.9497   -0.5730 C   0  0  0  0  0  0  0  0  0  0  0  0
   50.2578   -5.5667   -0.6214 C   0  0  0  0  0  0  0  0  0  0  0  0
   44.9876   -2.4981   -0.6789 H   0  0  0  0  0  0  0  0  0  0  0  0
   46.8830   -4.4140   -0.5935 H   0  0  0  0  0  0  0  0  0  0  0  0
   51.9593   -4.3395    1.0235 H   0  0  0  0  0  0  0  0  0  0  0  0
   53.8595   -2.4282    0.9249 H   0  0  0  0  0  0  0  0  0  0  0  0
   53.8658    2.5110   -0.9825 H   0  0  0  0  0  0  0  0  0  0  0  0
   51.9715    4.4265   -1.0986 H   0  0  0  0  0  0  0  0  0  0  0  0
   50.9305    5.1746    1.2428 H   0  0  0  0  0  0  0  0  0  0  0  0
   50.9419    7.6508    1.0954 H   0  0  0  0  0  0  0  0  0  0  0  0
   48.7422   10.7018   -1.3579 H   0  0  0  0  0  0  0  0  0  0  0  0
   47.9569    7.4829   -1.9725 H   0  0  0  0  0  0  0  0  0  0  0  0
   47.9535    5.0176   -1.8375 H   0  0  0  0  0  0  0  0  0  0  0  0
   46.9011    4.5331    0.5491 H   0  0  0  0  0  0  0  0  0  0  0  0
   44.9993    2.6242    0.6493 H   0  0  0  0  0  0  0  0  0  0  0  0
   47.9646   -4.9326    1.7976 H   0  0  0  0  0  0  0  0  0  0  0  0
   47.9713   -7.4121    1.8849 H   0  0  0  0  0  0  0  0  0  0  0  0
   50.1476  -10.6666   -0.3154 H   0  0  0  0  0  0  0  0  0  0  0  0
   50.9022   -7.5157   -1.2376 H   0  0  0  0  0  0  0  0  0  0  0  0
   50.8904   -5.0482   -1.3330 H   0  0  0  0  0  0  0  0  0  0  0  0
  2  3  4  0  0  0  0
  3  4  4  0  0  0  0
  4  5  2  0  0  0  0
  5  6  4  0  0  0  0
  1  7  1  0  0  0  0
  3  7  4  0  0  0  0
  6  7  4  0  0  0  0
  6  8  4  0  0  0  0
  8  9  4  0  0  0  0
  9 10  4  0  0  0  0
 10 11  2  0  0  0  0
  1 12  1  0  0  0  0
  9 12  4  0  0  0  0
 11 13  4  0  0  0  0
 12 13  4  0  0  0  0
 13 14  4  0  0  0  0
 14 15  4  0  0  0  0
 15 16  4  0  0  0  0
 16 17  2  0  0  0  0
 17 18  4  0  0  0  0
 18 19  4  0  0  0  0
 19 20  1  0  0  0  0
 20 21  4  0  0  0  0
 21 22  4  0  0  0  0
 22 23  4  0  0  0  0
 23 24  1  0  0  0  0
 24 25  4  0  0  0  0
 24 26  2  0  0  0  0
 23 27  4  0  0  0  0
 20 28  4  0  0  0  0
 27 28  4  0  0  0  0
 19 29  4  0  0  0  0
 29 30  4  0  0  0  0
 30 31  2  0  0  0  0
  2 32  4  0  0  0  0
 31 32  4  0  0  0  0
  1 33  1  0  0  0  0
 29 33  4  0  0  0  0
 32 33  4  0  0  0  0
  1 34  1  0  0  0  0
 15 34  4  0  0  0  0
 18 34  4  0  0  0  0
  8 35  1  0  0  0  0
 35 36  4  0  0  0  0
 36 37  4  0  0  0  0
 37 38  4  0  0  0  0
 38 39  1  0  0  0  0
 39 40  4  0  0  0  0
 39 41  2  0  0  0  0
 38 42  4  0  0  0  0
 35 43  4  0  0  0  0
 42 43  4  0  0  0  0
  2 44  1  0  0  0  0
  4 45  1  0  0  0  0
  5 46  1  0  0  0  0
 10 47  1  0  0  0  0
 11 48  1  0  0  0  0
 16 49  1  0  0  0  0
 17 50  1  0  0  0  0
 21 51  1  0  0  0  0
 22 52  1  0  0  0  0
 25 53  1  0  0  0  0
 27 54  1  0  0  0  0
 28 55  1  0  0  0  0
 30 56  1  0  0  0  0
 31 57  1  0  0  0  0
 36 58  1  0  0  0  0
 37 59  1  0  0  0  0
 40 60  1  0  0  0  0
 42 61  1  0  0  0  0
 43 62  1  0  0  0  0
 64 65  4  0  0  0  0
 65 66  4  0  0  0  0
 66 67  2  0  0  0  0
 67 68  4  0  0  0  0
 63 69  1  0  0  0  0
 65 69  4  0  0  0  0
 68 69  4  0  0  0  0
 68 70  4  0  0  0  0
 70 71  4  0  0  0  0
 71 72  4  0  0  0  0
 72 73  2  0  0  0  0
 63 74  1  0  0  0  0
 71 74  4  0  0  0  0
 73 75  4  0  0  0  0
 74 75  4  0  0  0  0
 75 76  4  0  0  0  0
 76 77  4  0  0  0  0
 77 78  4  0  0  0  0
 78 79  2  0  0  0  0
 79 80  4  0  0  0  0
 80 81  4  0  0  0  0
 81 82  1  0  0  0  0
 82 83  4  0  0  0  0
 83 84  4  0  0  0  0
 84 85  4  0  0  0  0
 85 86  1  0  0  0  0
 86 87  4  0  0  0  0
 86 88  2  0  0  0  0
 85 89  4  0  0  0  0
 82 90  4  0  0  0  0
 89 90  4  0  0  0  0
 81 91  4  0  0  0  0
 91 92  4  0  0  0  0
 92 93  2  0  0  0  0
 64 94  4  0  0  0  0
 93 94  4  0  0  0  0
 63 95  1  0  0  0  0
 91 95  4  0  0  0  0
 94 95  4  0  0  0  0
 63 96  1  0  0  0  0
 77 96  4  0  0  0  0
 80 96  4  0  0  0  0
 70 97  1  0  0  0  0
 97 98  4  0  0  0  0
 98 99  4  0  0  0  0
 99100  4  0  0  0  0
100101  1  0  0  0  0
101102  4  0  0  0  0
101103  2  0  0  0  0
100104  4  0  0  0  0
 97105  4  0  0  0  0
104105  4  0  0  0  0
 64106  1  0  0  0  0
 66107  1  0  0  0  0
 67108  1  0  0  0  0
 72109  1  0  0  0  0
 73110  1  0  0  0  0
 78111  1  0  0  0  0
 79112  1  0  0  0  0
 83113  1  0  0  0  0
 84114  1  0  0  0  0
 87115  1  0  0  0  0
 89116  1  0  0  0  0
 90117  1  0  0  0  0
 92118  1  0  0  0  0
 93119  1  0  0  0  0
 98120  1  0  0  0  0
 99121  1  0  0  0  0
102122  1  0  0  0  0
104123  1  0  0  0  0
105124  1  0  0  0  0
 14126  1  0  0  0  0
125126  3  0  0  0  0
125127  4  0  0  0  0
127128  3  0  0  0  0
129130  3  0  0  0  0
129131  4  0  0  0  0
 76132  1  0  0  0  0
131132  3  0  0  0  0
128134  1  0  0  0  0
134135  4  0  0  0  0
135136  4  0  0  0  0
136137  2  0  0  0  0
137138  4  0  0  0  0
133139  1  0  0  0  0
135139  4  0  0  0  0
138139  4  0  0  0  0
138140  4  0  0  0  0
140141  4  0  0  0  0
141142  4  0  0  0  0
142143  2  0  0  0  0
133144  1  0  0  0  0
141144  4  0  0  0  0
143145  4  0  0  0  0
144145  4  0  0  0  0
130146  4  0  0  0  0
145146  4  0  0  0  0
146147  4  0  0  0  0
147148  4  0  0  0  0
148149  2  0  0  0  0
149150  4  0  0  0  0
150151  4  0  0  0  0
151152  1  0  0  0  0
152153  4  0  0  0  0
153154  4  0  0  0  0
154155  4  0  0  0  0
155156  1  0  0  0  0
156157  4  0  0  0  0
156158  2  0  0  0  0
155159  4  0  0  0  0
152160  4  0  0  0  0
159160  4  0  0  0  0
151161  4  0  0  0  0
161162  4  0  0  0  0
162163  2  0  0  0  0
134164  4  0  0  0  0
163164  4  0  0  0  0
133165  1  0  0  0  0
161165  4  0  0  0  0
164165  4  0  0  0  0
133166  1  0  0  0  0
147166  4  0  0  0  0
150166  4  0  0  0  0
140167  1  0  0  0  0
167168  4  0  0  0  0
168169  4  0  0  0  0
169170  4  0  0  0  0
170171  1  0  0  0  0
171172  4  0  0  0  0
171173  2  0  0  0  0
170174  4  0  0  0  0
167175  4  0  0  0  0
174175  4  0  0  0  0
136176  1  0  0  0  0
137177  1  0  0  0  0
142178  1  0  0  0  0
143179  1  0  0  0  0
148180  1  0  0  0  0
149181  1  0  0  0  0
153182  1  0  0  0  0
154183  1  0  0  0  0
157184  1  0  0  0  0
159185  1  0  0  0  0
160186  1  0  0  0  0
162187  1  0  0  0  0
163188  1  0  0  0  0
168189  1  0  0  0  0
169190  1  0  0  0  0
172191  1  0  0  0  0
174192  1  0  0  0  0
175193  1  0  0  0  0
M  END
