576

C 147.255745 0.044495 0.109075
C 147.986142 -1.333098 0.079861
C 147.380856 -2.565702 0.170155
C 148.403822 -3.541482 0.046649
C 149.599646 -2.869933 -0.119627
N 149.338703 -1.524407 -0.044425
C 151.021709 -3.519835 -0.379431
C 152.150721 -2.762772 -0.331046
C 153.454668 -3.314471 -0.637419
C 154.354828 -2.343628 -0.537499
N 152.345468 -1.438762 -0.038726
C 153.675397 -1.124408 -0.145719
C 154.341668 0.045289 0.046107
C 153.564343 1.349647 0.507529
C 154.106477 2.424030 1.184903
C 153.080891 3.388344 1.348348
C 151.938183 2.871069 0.776952
C 150.526872 3.587971 0.687776
C 150.490260 5.062652 0.793789
C 150.800020 5.856683 -0.316245
C 150.773567 7.249948 -0.215127
C 150.438203 7.858041 1.001577
C 150.420333 9.339187 1.066021
O 150.093016 9.810143 2.284532
O 150.665712 10.107499 0.153289
C 150.130174 7.066248 2.115549
C 150.157832 5.673805 2.009213
C 149.402491 2.846990 0.509876
C 148.079432 3.436757 0.406693
C 147.195498 2.455174 0.253052
C 147.919113 1.207792 0.246147
N 149.240119 1.495189 0.390467
N 152.229321 1.609380 0.314047
C 151.059835 -4.959139 -0.726965
C 150.793032 -5.372731 -2.037344
C 150.811534 -6.730375 -2.366953
C 151.100723 -7.684491 -1.382323
C 151.132088 -9.135872 -1.683287
O 150.865446 -9.413756 -2.973240
O 151.366742 -10.033805 -0.894100
C 151.369506 -7.273794 -0.070281
C 151.346008 -5.915440 0.254574
H 146.177701 0.049767 0.002662
H 146.323469 -2.742672 0.292789
H 148.277229 -4.613847 0.052757
H 150.038282 -0.787025 -0.080408
H 153.668391 -4.331165 -0.914357
H 155.407413 -2.466186 -0.716567
H 155.129778 2.513037 1.516222
H 153.168355 4.352037 1.826244
H 151.057686 5.374966 -1.257346
H 151.013982 7.850263 -1.088742
H 150.123800 10.780000 2.163799
H 149.865363 7.514365 3.068204
H 149.917323 5.047771 2.866417
H 147.847675 4.485431 0.445341
H 146.131612 2.564782 0.147067
H 151.545352 0.955844 -0.058237
H 150.572829 -4.622362 -2.793789
H 150.599543 -7.024297 -3.390677
H 150.924632 -10.389485 -3.007415
H 151.598783 -8.001247 0.704310
H 151.552693 -5.585224 1.270058
C 245.678634 0.017766 0.102747
C 244.948236 1.262230 0.694292
C 245.553522 2.323513 1.327652
C 244.530557 3.251092 1.654757
C 243.334732 2.725377 1.205034
N 243.595676 1.488957 0.668974
C 241.912669 3.422780 1.264198
C 240.783658 2.724383 0.968010
C 239.479710 3.354886 0.941518
C 238.579551 2.442295 0.595544
N 240.588910 1.409848 0.635668
C 239.258981 1.176833 0.399089
C 238.592711 0.045289 0.046107
C 239.370035 -1.327499 -0.126272
C 238.827902 -2.591547 -0.002510
C 239.853487 -3.526784 -0.288774
C 240.996196 -2.808226 -0.567592
C 242.407506 -3.409047 -0.968733
C 242.444119 -4.774728 -1.535161
C 242.134359 -4.986779 -2.883380
C 242.160811 -6.277491 -3.417680
C 242.496176 -7.366558 -2.602770
C 242.514045 -8.719379 -3.209253
O 242.841362 -9.686676 -2.331242
O 242.268666 -8.996904 -4.369581
C 242.804205 -7.158272 -1.252034
C 242.776546 -5.865956 -0.722767
C 243.531888 -2.666956 -0.795523
C 244.854946 -3.147858 -1.152181
C 245.738881 -2.201581 -0.849411
C 245.015265 -1.083508 -0.296307
N 243.694260 -1.405107 -0.296163
N 240.705057 -1.472912 -0.415670
C 241.874543 4.865126 1.598880
C 242.141346 5.822339 0.613032
C 242.122844 7.183656 0.927124
C 241.833655 7.595026 2.235026
C 241.802291 9.027288 2.616750
O 242.068933 9.854039 1.588313
O 241.567637 9.476068 3.724764
C 241.564872 6.639656 3.223658
C 241.588370 5.279836 2.904999
H 246.756677 0.060765 0.005266
H 246.610910 2.426714 1.516615
H 244.657149 4.206890 2.141022
H 242.896097 0.845979 0.306198
H 239.265987 4.387829 1.149820
H 237.526966 2.632130 0.490434
H 237.804600 -2.819657 0.253734
H 239.766024 -4.602454 -0.293687
H 241.876693 -4.134243 -3.508603
H 241.920396 -6.422390 -4.467721
H 242.810579 -10.499454 -2.874004
H 243.069015 -7.985956 -0.601419
H 243.017055 -5.690709 0.324136
H 245.086704 -4.102546 -1.587819
H 246.802766 -2.252035 -0.993290
H 241.389026 -0.721830 -0.455418
H 242.361549 5.490778 -0.399554
H 242.334836 7.905376 0.143848
H 242.009746 10.741521 1.995244
H 241.335595 6.942597 4.242189
H 241.381685 4.529369 3.664637
C 156.530845 0.045289 0.046107
C 157.752762 0.045289 0.046107
C 167.766669 0.045289 0.046107
C 168.988587 0.045289 0.046107
C 179.002494 0.045289 0.046107
C 180.224411 0.045289 0.046107
C 190.238318 0.045289 0.046107
C 191.460236 0.045289 0.046107
C 201.474143 0.045289 0.046107
C 202.696060 0.045289 0.046107
C 212.709967 0.045289 0.046107
C 213.931885 0.045289 0.046107
C 223.945792 0.045289 0.046107
C 225.167709 0.045289 0.046107
C 235.181616 0.045289 0.046107
C 236.403534 0.045289 0.046107
C 159.169508 -0.014818 -0.015086
C 159.963888 0.778188 -1.133191
C 159.459585 1.241386 -2.331370
C 160.497153 1.961385 -2.977222
C 161.604163 1.909291 -2.156288
N 161.291605 1.124020 -1.075031
C 162.992703 2.628237 -2.403220
C 164.128198 2.127053 -1.850155
C 165.414811 2.775983 -1.997845
C 166.323208 2.058039 -1.346141
N 164.336746 1.015797 -1.081684
C 165.661442 0.914967 -0.750378
C 166.325636 -0.014818 -0.015086
C 165.530959 -1.234899 0.609232
C 166.033761 -2.488498 0.892619
C 164.995781 -3.230795 1.512106
C 163.890333 -2.409146 1.581511
C 162.502719 -2.755173 2.259926
C 162.515230 -3.716059 3.386074
C 162.076862 -5.033650 3.202470
C 162.103506 -5.940336 4.264851
C 162.573398 -5.534319 5.520486
C 162.585475 -6.527910 6.620888
O 163.049644 -6.025702 7.781032
O 162.227646 -7.690397 6.550065
C 163.016240 -4.218468 5.707049
C 162.987292 -3.315166 4.641477
C 161.366704 -2.138361 1.841365
C 160.080800 -2.374846 2.464747
C 159.172245 -1.627920 1.846705
C 159.833444 -0.877024 0.798595
N 161.157468 -1.222172 0.848497
N 164.203667 -1.225800 0.961255
C 162.984311 3.870699 -3.208249
C 162.514300 5.065849 -2.651556
C 162.491401 6.237154 -3.412919
C 162.937439 6.219084 -4.740707
C 162.896618 7.483926 -5.513271
O 163.344579 7.345972 -6.775957
O 162.510391 8.566851 -5.110455
C 163.405269 5.024254 -5.302775
C 163.425733 3.855597 -4.537656
H 158.452394 1.097997 -2.692196
H 160.437052 2.476431 -3.924068
H 161.951006 0.811534 -0.368206
H 165.610906 3.688162 -2.532157
H 167.367723 2.302356 -1.280378
H 167.040067 -2.826312 0.696643
H 165.054398 -4.242704 1.883665
H 161.711715 -5.338528 2.223529
H 161.755947 -6.957284 4.104274
H 162.994062 -6.786769 8.392592
H 163.385759 -3.880592 6.670419
H 163.330038 -2.290989 4.776687
H 159.884985 -3.032617 3.292391
H 158.127999 -1.596667 2.098948
H 163.544926 -0.480481 0.754844
H 162.168702 5.070969 -1.619554
H 162.124583 7.155627 -2.962577
H 163.256036 8.248255 -7.142796
H 163.756682 4.985491 -6.329239
H 163.788875 2.921977 -4.963489
C 170.405332 -0.014818 -0.015086
C 171.199713 0.778188 -1.133191
C 170.695410 1.241386 -2.331370
C 171.732977 1.961385 -2.977222
C 172.839987 1.909291 -2.156288
N 172.527430 1.124020 -1.075031
C 174.228528 2.628237 -2.403220
C 175.364023 2.127053 -1.850155
C 176.650635 2.775983 -1.997845
C 177.559032 2.058039 -1.346141
N 175.572570 1.015797 -1.081684
C 176.897266 0.914967 -0.750378
C 177.561461 -0.014818 -0.015086
C 176.766783 -1.234899 0.609232
C 177.269586 -2.488498 0.892619
C 176.231605 -3.230795 1.512106
C 175.126157 -2.409146 1.581511
C 173.738543 -2.755173 2.259926
C 173.751054 -3.716059 3.386074
C 173.312686 -5.033650 3.202470
C 173.339331 -5.940336 4.264851
C 173.809223 -5.534319 5.520486
C 173.821299 -6.527910 6.620888
O 174.285468 -6.025702 7.781032
O 173.463471 -7.690397 6.550065
C 174.252064 -4.218468 5.707049
C 174.223117 -3.315166 4.641477
C 172.602528 -2.138361 1.841365
C 171.316625 -2.374846 2.464747
C 170.408069 -1.627920 1.846705
C 171.069268 -0.877024 0.798595
N 172.393293 -1.222172 0.848497
N 175.439491 -1.225800 0.961255
C 174.220135 3.870699 -3.208249
C 173.750124 5.065849 -2.651556
C 173.727226 6.237154 -3.412919
C 174.173264 6.219084 -4.740707
C 174.132442 7.483926 -5.513271
O 174.580404 7.345972 -6.775957
O 173.746215 8.566851 -5.110455
C 174.641093 5.024254 -5.302775
C 174.661557 3.855597 -4.537656
H 169.688219 1.097997 -2.692196
H 171.672877 2.476431 -3.924068
H 173.186830 0.811534 -0.368206
H 176.846730 3.688162 -2.532157
H 178.603548 2.302356 -1.280378
H 178.275892 -2.826312 0.696643
H 176.290223 -4.242704 1.883665
H 172.947540 -5.338528 2.223529
H 172.991771 -6.957284 4.104274
H 174.229887 -6.786769 8.392592
H 174.621583 -3.880592 6.670419
H 174.565862 -2.290989 4.776687
H 171.120810 -3.032617 3.292391
H 169.363824 -1.596667 2.098948
H 174.780751 -0.480481 0.754844
H 173.404527 5.070969 -1.619554
H 173.360408 7.155627 -2.962577
H 174.491860 8.248255 -7.142796
H 174.992506 4.985491 -6.329239
H 175.024700 2.921977 -4.963489
C 181.641157 -0.014818 -0.015086
C 182.435537 0.778188 -1.133191
C 181.931234 1.241386 -2.331370
C 182.968802 1.961385 -2.977222
C 184.075812 1.909291 -2.156288
N 183.763254 1.124020 -1.075031
C 185.464352 2.628237 -2.403220
C 186.599847 2.127053 -1.850155
C 187.886460 2.775983 -1.997845
C 188.794857 2.058039 -1.346141
N 186.808395 1.015797 -1.081684
C 188.133091 0.914967 -0.750378
C 188.797285 -0.014818 -0.015086
C 188.002608 -1.234899 0.609232
C 188.505410 -2.488498 0.892619
C 187.467430 -3.230795 1.512106
C 186.361982 -2.409146 1.581511
C 184.974368 -2.755173 2.259926
C 184.986879 -3.716059 3.386074
C 184.548511 -5.033650 3.202470
C 184.575155 -5.940336 4.264851
C 185.045047 -5.534319 5.520486
C 185.057124 -6.527910 6.620888
O 185.521293 -6.025702 7.781032
O 184.699295 -7.690397 6.550065
C 185.487889 -4.218468 5.707049
C 185.458941 -3.315166 4.641477
C 183.838353 -2.138361 1.841365
C 182.552449 -2.374846 2.464747
C 181.643894 -1.627920 1.846705
C 182.305093 -0.877024 0.798595
N 183.629117 -1.222172 0.848497
N 186.675316 -1.225800 0.961255
C 185.455960 3.870699 -3.208249
C 184.985949 5.065849 -2.651556
C 184.963050 6.237154 -3.412919
C 185.409088 6.219084 -4.740707
C 185.368266 7.483926 -5.513271
O 185.816228 7.345972 -6.775957
O 184.982040 8.566851 -5.110455
C 185.876918 5.024254 -5.302775
C 185.897382 3.855597 -4.537656
H 180.924043 1.097997 -2.692196
H 182.908701 2.476431 -3.924068
H 184.422655 0.811534 -0.368206
H 188.082555 3.688162 -2.532157
H 189.839372 2.302356 -1.280378
H 189.511716 -2.826312 0.696643
H 187.526047 -4.242704 1.883665
H 184.183364 -5.338528 2.223529
H 184.227596 -6.957284 4.104274
H 185.465711 -6.786769 8.392592
H 185.857408 -3.880592 6.670419
H 185.801687 -2.290989 4.776687
H 182.356634 -3.032617 3.292391
H 180.599648 -1.596667 2.098948
H 186.016575 -0.480481 0.754844
H 184.640351 5.070969 -1.619554
H 184.596232 7.155627 -2.962577
H 185.727685 8.248255 -7.142796
H 186.228331 4.985491 -6.329239
H 186.260524 2.921977 -4.963489
C 192.876981 -0.014818 -0.015086
C 193.671362 0.778188 -1.133191
C 193.167059 1.241386 -2.331370
C 194.204626 1.961385 -2.977222
C 195.311636 1.909291 -2.156288
N 194.999078 1.124020 -1.075031
C 196.700177 2.628237 -2.403220
C 197.835672 2.127053 -1.850155
C 199.122284 2.775983 -1.997845
C 200.030681 2.058039 -1.346141
N 198.044219 1.015797 -1.081684
C 199.368915 0.914967 -0.750378
C 200.033110 -0.014818 -0.015086
C 199.238432 -1.234899 0.609232
C 199.741235 -2.488498 0.892619
C 198.703254 -3.230795 1.512106
C 197.597806 -2.409146 1.581511
C 196.210192 -2.755173 2.259926
C 196.222703 -3.716059 3.386074
C 195.784335 -5.033650 3.202470
C 195.810980 -5.940336 4.264851
C 196.280872 -5.534319 5.520486
C 196.292948 -6.527910 6.620888
O 196.757117 -6.025702 7.781032
O 195.935120 -7.690397 6.550065
C 196.723713 -4.218468 5.707049
C 196.694766 -3.315166 4.641477
C 195.074177 -2.138361 1.841365
C 193.788274 -2.374846 2.464747
C 192.879718 -1.627920 1.846705
C 193.540917 -0.877024 0.798595
N 194.864942 -1.222172 0.848497
N 197.911140 -1.225800 0.961255
C 196.691784 3.870699 -3.208249
C 196.221773 5.065849 -2.651556
C 196.198875 6.237154 -3.412919
C 196.644913 6.219084 -4.740707
C 196.604091 7.483926 -5.513271
O 197.052053 7.345972 -6.775957
O 196.217864 8.566851 -5.110455
C 197.112742 5.024254 -5.302775
C 197.133206 3.855597 -4.537656
H 192.159868 1.097997 -2.692196
H 194.144526 2.476431 -3.924068
H 195.658479 0.811534 -0.368206
H 199.318379 3.688162 -2.532157
H 201.075197 2.302356 -1.280378
H 200.747541 -2.826312 0.696643
H 198.761872 -4.242704 1.883665
H 195.419189 -5.338528 2.223529
H 195.463420 -6.957284 4.104274
H 196.701536 -6.786769 8.392592
H 197.093232 -3.880592 6.670419
H 197.037511 -2.290989 4.776687
H 193.592459 -3.032617 3.292391
H 191.835473 -1.596667 2.098948
H 197.252400 -0.480481 0.754844
H 195.876176 5.070969 -1.619554
H 195.832057 7.155627 -2.962577
H 196.963509 8.248255 -7.142796
H 197.464155 4.985491 -6.329239
H 197.496349 2.921977 -4.963489
C 204.112805 -0.014818 -0.015086
C 204.907186 0.778188 -1.133191
C 204.402883 1.241386 -2.331370
C 205.440451 1.961385 -2.977222
C 206.547461 1.909291 -2.156288
N 206.234903 1.124020 -1.075031
C 207.936001 2.628237 -2.403220
C 209.071496 2.127053 -1.850155
C 210.358109 2.775983 -1.997845
C 211.266505 2.058039 -1.346141
N 209.280044 1.015797 -1.081684
C 210.604740 0.914967 -0.750378
C 211.268934 -0.014818 -0.015086
C 210.474257 -1.234899 0.609232
C 210.977059 -2.488498 0.892619
C 209.939079 -3.230795 1.512106
C 208.833631 -2.409146 1.581511
C 207.446017 -2.755173 2.259926
C 207.458528 -3.716059 3.386074
C 207.020159 -5.033650 3.202470
C 207.046804 -5.940336 4.264851
C 207.516696 -5.534319 5.520486
C 207.528773 -6.527910 6.620888
O 207.992942 -6.025702 7.781032
O 207.170944 -7.690397 6.550065
C 207.959538 -4.218468 5.707049
C 207.930590 -3.315166 4.641477
C 206.310002 -2.138361 1.841365
C 205.024098 -2.374846 2.464747
C 204.115543 -1.627920 1.846705
C 204.776742 -0.877024 0.798595
N 206.100766 -1.222172 0.848497
N 209.146965 -1.225800 0.961255
C 207.927609 3.870699 -3.208249
C 207.457598 5.065849 -2.651556
C 207.434699 6.237154 -3.412919
C 207.880737 6.219084 -4.740707
C 207.839915 7.483926 -5.513271
O 208.287877 7.345972 -6.775957
O 207.453689 8.566851 -5.110455
C 208.348567 5.024254 -5.302775
C 208.369030 3.855597 -4.537656
H 203.395692 1.097997 -2.692196
H 205.380350 2.476431 -3.924068
H 206.894304 0.811534 -0.368206
H 210.554204 3.688162 -2.532157
H 212.311021 2.302356 -1.280378
H 211.983365 -2.826312 0.696643
H 209.997696 -4.242704 1.883665
H 206.655013 -5.338528 2.223529
H 206.699245 -6.957284 4.104274
H 207.937360 -6.786769 8.392592
H 208.329057 -3.880592 6.670419
H 208.273336 -2.290989 4.776687
H 204.828283 -3.032617 3.292391
H 203.071297 -1.596667 2.098948
H 208.488224 -0.480481 0.754844
H 207.112000 5.070969 -1.619554
H 207.067881 7.155627 -2.962577
H 208.199334 8.248255 -7.142796
H 208.699980 4.985491 -6.329239
H 208.732173 2.921977 -4.963489
C 215.348630 -0.014818 -0.015086
C 216.143011 0.778188 -1.133191
C 215.638707 1.241386 -2.331370
C 216.676275 1.961385 -2.977222
C 217.783285 1.909291 -2.156288
N 217.470727 1.124020 -1.075031
C 219.171826 2.628237 -2.403220
C 220.307321 2.127053 -1.850155
C 221.593933 2.775983 -1.997845
C 222.502330 2.058039 -1.346141
N 220.515868 1.015797 -1.081684
C 221.840564 0.914967 -0.750378
C 222.504759 -0.014818 -0.015086
C 221.710081 -1.234899 0.609232
C 222.212883 -2.488498 0.892619
C 221.174903 -3.230795 1.512106
C 220.069455 -2.409146 1.581511
C 218.681841 -2.755173 2.259926
C 218.694352 -3.716059 3.386074
C 218.255984 -5.033650 3.202470
C 218.282629 -5.940336 4.264851
C 218.752521 -5.534319 5.520486
C 218.764597 -6.527910 6.620888
O 219.228766 -6.025702 7.781032
O 218.406768 -7.690397 6.550065
C 219.195362 -4.218468 5.707049
C 219.166415 -3.315166 4.641477
C 217.545826 -2.138361 1.841365
C 216.259923 -2.374846 2.464747
C 215.351367 -1.627920 1.846705
C 216.012566 -0.877024 0.798595
N 217.336591 -1.222172 0.848497
N 220.382789 -1.225800 0.961255
C 219.163433 3.870699 -3.208249
C 218.693422 5.065849 -2.651556
C 218.670524 6.237154 -3.412919
C 219.116562 6.219084 -4.740707
C 219.075740 7.483926 -5.513271
O 219.523701 7.345972 -6.775957
O 218.689513 8.566851 -5.110455
C 219.584391 5.024254 -5.302775
C 219.604855 3.855597 -4.537656
H 214.631517 1.097997 -2.692196
H 216.616175 2.476431 -3.924068
H 218.130128 0.811534 -0.368206
H 221.790028 3.688162 -2.532157
H 223.546846 2.302356 -1.280378
H 223.219190 -2.826312 0.696643
H 221.233521 -4.242704 1.883665
H 217.890838 -5.338528 2.223529
H 217.935069 -6.957284 4.104274
H 219.173185 -6.786769 8.392592
H 219.564881 -3.880592 6.670419
H 219.509160 -2.290989 4.776687
H 216.064108 -3.032617 3.292391
H 214.307122 -1.596667 2.098948
H 219.724049 -0.480481 0.754844
H 218.347825 5.070969 -1.619554
H 218.303706 7.155627 -2.962577
H 219.435158 8.248255 -7.142796
H 219.935804 4.985491 -6.329239
H 219.967998 2.921977 -4.963489
C 226.584454 -0.014818 -0.015086
C 227.378835 0.778188 -1.133191
C 226.874532 1.241386 -2.331370
C 227.912100 1.961385 -2.977222
C 229.019110 1.909291 -2.156288
N 228.706552 1.124020 -1.075031
C 230.407650 2.628237 -2.403220
C 231.543145 2.127053 -1.850155
C 232.829757 2.775983 -1.997845
C 233.738154 2.058039 -1.346141
N 231.751693 1.015797 -1.081684
C 233.076388 0.914967 -0.750378
C 233.740583 -0.014818 -0.015086
C 232.945906 -1.234899 0.609232
C 233.448708 -2.488498 0.892619
C 232.410728 -3.230795 1.512106
C 231.305280 -2.409146 1.581511
C 229.917666 -2.755173 2.259926
C 229.930177 -3.716059 3.386074
C 229.491808 -5.033650 3.202470
C 229.518453 -5.940336 4.264851
C 229.988345 -5.534319 5.520486
C 230.000422 -6.527910 6.620888
O 230.464591 -6.025702 7.781032
O 229.642593 -7.690397 6.550065
C 230.431187 -4.218468 5.707049
C 230.402239 -3.315166 4.641477
C 228.781651 -2.138361 1.841365
C 227.495747 -2.374846 2.464747
C 226.587191 -1.627920 1.846705
C 227.248391 -0.877024 0.798595
N 228.572415 -1.222172 0.848497
N 231.618614 -1.225800 0.961255
C 230.399258 3.870699 -3.208249
C 229.929246 5.065849 -2.651556
C 229.906348 6.237154 -3.412919
C 230.352386 6.219084 -4.740707
C 230.311564 7.483926 -5.513271
O 230.759526 7.345972 -6.775957
O 229.925338 8.566851 -5.110455
C 230.820216 5.024254 -5.302775
C 230.840679 3.855597 -4.537656
H 225.867341 1.097997 -2.692196
H 227.851999 2.476431 -3.924068
H 229.365952 0.811534 -0.368206
H 233.025853 3.688162 -2.532157
H 234.782670 2.302356 -1.280378
H 234.455014 -2.826312 0.696643
H 232.469345 -4.242704 1.883665
H 229.126662 -5.338528 2.223529
H 229.170894 -6.957284 4.104274
H 230.409009 -6.786769 8.392592
H 230.800706 -3.880592 6.670419
H 230.744985 -2.290989 4.776687
H 227.299932 -3.032617 3.292391
H 225.542946 -1.596667 2.098948
H 230.959873 -0.480481 0.754844
H 229.583649 5.070969 -1.619554
H 229.539530 7.155627 -2.962577
H 230.670983 8.248255 -7.142796
H 231.171629 4.985491 -6.329239
H 231.203822 2.921977 -4.963489
