 xtb: 6.5.1 (b24c23e)
          07272214013D

280307  0     0  0            999 V2000
   45.7309    0.0605    0.0188 C   0  0  0  0  0  0  0  0  0  0  0  0
   46.3382    1.2678    0.3391 C   0  0  0  0  0  0  0  0  0  0  0  0
   45.6864    2.4805    0.7000 C   0  0  0  0  0  0  0  0  0  0  0  0
   46.6482    3.4240    0.9281 C   0  0  0  0  0  0  0  0  0  0  0  0
   47.9187    2.8212    0.7026 C   0  0  0  0  0  0  0  0  0  0  0  0
   47.6808    1.5202    0.3599 N   0  0  0  0  0  0  0  0  0  0  0  0
   49.1803    3.4148    0.8175 C   0  0  0  0  0  0  0  0  0  0  0  0
   50.3967    2.7589    0.6147 C   0  0  0  0  0  0  0  0  0  0  0  0
   51.6898    3.4155    0.6809 C   0  0  0  0  0  0  0  0  0  0  0  0
   52.6147    2.4633    0.4401 C   0  0  0  0  0  0  0  0  0  0  0  0
   50.5576    1.4397    0.3190 N   0  0  0  0  0  0  0  0  0  0  0  0
   51.8862    1.2291    0.2184 C   0  0  0  0  0  0  0  0  0  0  0  0
   52.5271   -0.0006   -0.0304 C   0  0  0  0  0  0  0  0  0  0  0  0
   51.8946   -1.2349   -0.2689 C   0  0  0  0  0  0  0  0  0  0  0  0
   52.5391   -2.4778   -0.5065 C   0  0  0  0  0  0  0  0  0  0  0  0
   51.5730   -3.4204   -0.7261 C   0  0  0  0  0  0  0  0  0  0  0  0
   50.3067   -2.7786   -0.6403 C   0  0  0  0  0  0  0  0  0  0  0  0
   49.0461   -3.3633   -0.8013 C   0  0  0  0  0  0  0  0  0  0  0  0
   49.0150   -4.8066   -1.1437 C   0  0  0  0  0  0  0  0  0  0  0  0
   48.3994   -5.7177   -0.2861 C   0  0  0  0  0  0  0  0  0  0  0  0
   48.3643   -7.0719   -0.6001 C   0  0  0  0  0  0  0  0  0  0  0  0
   47.6835   -8.0469    0.3222 C   0  0  0  0  0  0  0  0  0  0  0  0
   48.9464   -7.5125   -1.7850 C   0  0  0  0  0  0  0  0  0  0  0  0
   49.5649   -6.6161   -2.6514 C   0  0  0  0  0  0  0  0  0  0  0  0
   50.1714   -7.0997   -3.9410 C   0  0  0  0  0  0  0  0  0  0  0  0
   49.5977   -5.2646   -2.3248 C   0  0  0  0  0  0  0  0  0  0  0  0
   47.8281   -2.6894   -0.6658 C   0  0  0  0  0  0  0  0  0  0  0  0
   46.5268   -3.2995   -0.8905 C   0  0  0  0  0  0  0  0  0  0  0  0
   45.6090   -2.3396   -0.6577 C   0  0  0  0  0  0  0  0  0  0  0  0
   46.3486   -1.1413   -0.3025 C   0  0  0  0  0  0  0  0  0  0  0  0
   47.6815   -1.3862   -0.3273 N   0  0  0  0  0  0  0  0  0  0  0  0
   50.5529   -1.4622   -0.3513 N   0  0  0  0  0  0  0  0  0  0  0  0
   49.2084    4.8516    1.1892 C   0  0  0  0  0  0  0  0  0  0  0  0
   49.8170    5.2559    2.3759 C   0  0  0  0  0  0  0  0  0  0  0  0
   49.8368    6.5991    2.7390 C   0  0  0  0  0  0  0  0  0  0  0  0
   50.5049    7.0225    4.0192 C   0  0  0  0  0  0  0  0  0  0  0  0
   49.2478    7.5400    1.9012 C   0  0  0  0  0  0  0  0  0  0  0  0
   48.6379    7.1523    0.7109 C   0  0  0  0  0  0  0  0  0  0  0  0
   48.0231    8.1848   -0.1951 C   0  0  0  0  0  0  0  0  0  0  0  0
   48.6192    5.8070    0.3612 C   0  0  0  0  0  0  0  0  0  0  0  0
   44.6456    0.0654    0.0241 H   0  0  0  0  0  0  0  0  0  0  0  0
   44.6175    2.6000    0.7784 H   0  0  0  0  0  0  0  0  0  0  0  0
   46.4977    4.4470    1.2328 H   0  0  0  0  0  0  0  0  0  0  0  0
   48.4056    0.8405    0.1554 H   0  0  0  0  0  0  0  0  0  0  0  0
   51.8458    4.4646    0.8735 H   0  0  0  0  0  0  0  0  0  0  0  0
   53.6877    2.5631    0.4094 H   0  0  0  0  0  0  0  0  0  0  0  0
   53.6072   -2.6243   -0.5074 H   0  0  0  0  0  0  0  0  0  0  0  0
   51.7209   -4.4696   -0.9240 H   0  0  0  0  0  0  0  0  0  0  0  0
   47.9622   -5.3644    0.6413 H   0  0  0  0  0  0  0  0  0  0  0  0
   46.6318   -8.1468    0.0441 H   0  0  0  0  0  0  0  0  0  0  0  0
   48.1463   -9.0319    0.2572 H   0  0  0  0  0  0  0  0  0  0  0  0
   47.7296   -7.7017    1.3552 H   0  0  0  0  0  0  0  0  0  0  0  0
   48.9202   -8.5682   -2.0350 H   0  0  0  0  0  0  0  0  0  0  0  0
   51.0077   -6.4667   -4.2387 H   0  0  0  0  0  0  0  0  0  0  0  0
   50.5227   -8.1272   -3.8440 H   0  0  0  0  0  0  0  0  0  0  0  0
   49.4233   -7.0702   -4.7366 H   0  0  0  0  0  0  0  0  0  0  0  0
   50.0638   -4.5553   -3.0001 H   0  0  0  0  0  0  0  0  0  0  0  0
   46.3633   -4.3204   -1.1965 H   0  0  0  0  0  0  0  0  0  0  0  0
   44.5339   -2.4032   -0.7205 H   0  0  0  0  0  0  0  0  0  0  0  0
   49.8307   -0.7618   -0.2191 H   0  0  0  0  0  0  0  0  0  0  0  0
   50.2607    4.5117    3.0281 H   0  0  0  0  0  0  0  0  0  0  0  0
   50.2927    6.3113    4.8183 H   0  0  0  0  0  0  0  0  0  0  0  0
   50.1664    8.0115    4.3280 H   0  0  0  0  0  0  0  0  0  0  0  0
   51.5875    7.0591    3.8790 H   0  0  0  0  0  0  0  0  0  0  0  0
   49.2603    8.5890    2.1789 H   0  0  0  0  0  0  0  0  0  0  0  0
   47.5373    8.9690    0.3863 H   0  0  0  0  0  0  0  0  0  0  0  0
   48.7985    8.6499   -0.8082 H   0  0  0  0  0  0  0  0  0  0  0  0
   47.2882    7.7319   -0.8606 H   0  0  0  0  0  0  0  0  0  0  0  0
   48.1581    5.4947   -0.5695 H   0  0  0  0  0  0  0  0  0  0  0  0
   85.2010   -0.0507   -0.0216 C   0  0  0  0  0  0  0  0  0  0  0  0
   84.6012   -1.2747   -0.2881 C   0  0  0  0  0  0  0  0  0  0  0  0
   85.2607   -2.5138   -0.5230 C   0  0  0  0  0  0  0  0  0  0  0  0
   84.3049   -3.4617   -0.7582 C   0  0  0  0  0  0  0  0  0  0  0  0
   83.0305   -2.8303   -0.6835 C   0  0  0  0  0  0  0  0  0  0  0  0
   83.2601   -1.5164   -0.3873 N   0  0  0  0  0  0  0  0  0  0  0  0
   81.7732   -3.4176   -0.8608 C   0  0  0  0  0  0  0  0  0  0  0  0
   80.5516   -2.7520   -0.7344 C   0  0  0  0  0  0  0  0  0  0  0  0
   79.2639   -3.3707   -0.9920 C   0  0  0  0  0  0  0  0  0  0  0  0
   78.3319   -2.4221   -0.7647 C   0  0  0  0  0  0  0  0  0  0  0  0
   80.3806   -1.4489   -0.3789 N   0  0  0  0  0  0  0  0  0  0  0  0
   79.0504   -1.2241   -0.3760 C   0  0  0  0  0  0  0  0  0  0  0  0
   78.4010   -0.0147   -0.0584 C   0  0  0  0  0  0  0  0  0  0  0  0
   79.0264    1.2052    0.2599 C   0  0  0  0  0  0  0  0  0  0  0  0
   78.3752    2.4133    0.6245 C   0  0  0  0  0  0  0  0  0  0  0  0
   79.3356    3.3586    0.8570 C   0  0  0  0  0  0  0  0  0  0  0  0
   80.6053    2.7573    0.6357 C   0  0  0  0  0  0  0  0  0  0  0  0
   81.8623    3.3561    0.7713 C   0  0  0  0  0  0  0  0  0  0  0  0
   81.8832    4.7932    1.1397 C   0  0  0  0  0  0  0  0  0  0  0  0
   82.4883    5.2019    2.3277 C   0  0  0  0  0  0  0  0  0  0  0  0
   82.5097    6.5456    2.6848 C   0  0  0  0  0  0  0  0  0  0  0  0
   83.1771    6.9806    3.9616 C   0  0  0  0  0  0  0  0  0  0  0  0
   81.9252    7.4849    1.8404 C   0  0  0  0  0  0  0  0  0  0  0  0
   81.3180    7.0933    0.6510 C   0  0  0  0  0  0  0  0  0  0  0  0
   80.7084    8.1203   -0.2649 C   0  0  0  0  0  0  0  0  0  0  0  0
   81.2983    5.7460    0.3065 C   0  0  0  0  0  0  0  0  0  0  0  0
   83.0848    2.7005    0.5947 C   0  0  0  0  0  0  0  0  0  0  0  0
   84.3823    3.3523    0.6850 C   0  0  0  0  0  0  0  0  0  0  0  0
   85.3068    2.3958    0.4652 C   0  0  0  0  0  0  0  0  0  0  0  0
   84.5754    1.1633    0.2308 C   0  0  0  0  0  0  0  0  0  0  0  0
   83.2406    1.3866    0.3055 N   0  0  0  0  0  0  0  0  0  0  0  0
   80.3666    1.4547    0.2847 N   0  0  0  0  0  0  0  0  0  0  0  0
   81.7571   -4.8592   -1.2138 C   0  0  0  0  0  0  0  0  0  0  0  0
   81.1462   -5.7835   -0.3686 C   0  0  0  0  0  0  0  0  0  0  0  0
   81.1376   -7.1376   -0.6895 C   0  0  0  0  0  0  0  0  0  0  0  0
   80.4659   -8.1241    0.2272 C   0  0  0  0  0  0  0  0  0  0  0  0
   81.7407   -7.5625   -1.8684 C   0  0  0  0  0  0  0  0  0  0  0  0
   82.3533   -6.6511   -2.7247 C   0  0  0  0  0  0  0  0  0  0  0  0
   82.9833   -7.1231   -4.0073 C   0  0  0  0  0  0  0  0  0  0  0  0
   82.3601   -5.3017   -2.3913 C   0  0  0  0  0  0  0  0  0  0  0  0
   86.2863   -0.0523   -0.0122 H   0  0  0  0  0  0  0  0  0  0  0  0
   86.3304   -2.6498   -0.5059 H   0  0  0  0  0  0  0  0  0  0  0  0
   84.4621   -4.5092   -0.9582 H   0  0  0  0  0  0  0  0  0  0  0  0
   82.5312   -0.8229   -0.2574 H   0  0  0  0  0  0  0  0  0  0  0  0
   79.1158   -4.3875   -1.3180 H   0  0  0  0  0  0  0  0  0  0  0  0
   77.2609   -2.4979   -0.8607 H   0  0  0  0  0  0  0  0  0  0  0  0
   77.3072    2.5328    0.7084 H   0  0  0  0  0  0  0  0  0  0  0  0
   79.1817    4.3795    1.1666 H   0  0  0  0  0  0  0  0  0  0  0  0
   82.9270    4.4590    2.9848 H   0  0  0  0  0  0  0  0  0  0  0  0
   84.2279    7.2105    3.7706 H   0  0  0  0  0  0  0  0  0  0  0  0
   82.7019    7.8757    4.3634 H   0  0  0  0  0  0  0  0  0  0  0  0
   83.1340    6.1903    4.7113 H   0  0  0  0  0  0  0  0  0  0  0  0
   81.9401    8.5348    2.1143 H   0  0  0  0  0  0  0  0  0  0  0  0
   79.8959    7.6874   -0.8488 H   0  0  0  0  0  0  0  0  0  0  0  0
   80.3233    8.9673    0.3034 H   0  0  0  0  0  0  0  0  0  0  0  0
   81.4648    8.4934   -0.9593 H   0  0  0  0  0  0  0  0  0  0  0  0
   80.8401    5.4315   -0.6249 H   0  0  0  0  0  0  0  0  0  0  0  0
   84.5386    4.4016    0.8772 H   0  0  0  0  0  0  0  0  0  0  0  0
   86.3818    2.4861    0.4489 H   0  0  0  0  0  0  0  0  0  0  0  0
   81.0929    0.7738    0.0886 H   0  0  0  0  0  0  0  0  0  0  0  0
   80.6917   -5.4427    0.5552 H   0  0  0  0  0  0  0  0  0  0  0  0
   80.6611   -7.8755    1.2710 H   0  0  0  0  0  0  0  0  0  0  0  0
   80.8166   -9.1379    0.0343 H   0  0  0  0  0  0  0  0  0  0  0  0
   79.3851   -8.0999    0.0711 H   0  0  0  0  0  0  0  0  0  0  0  0
   81.7370   -8.6172   -2.1238 H   0  0  0  0  0  0  0  0  0  0  0  0
   83.4624   -8.0928   -3.8689 H   0  0  0  0  0  0  0  0  0  0  0  0
   82.2180   -7.2312   -4.7792 H   0  0  0  0  0  0  0  0  0  0  0  0
   83.7268   -6.4093   -4.3623 H   0  0  0  0  0  0  0  0  0  0  0  0
   82.8226   -4.5809   -3.0569 H   0  0  0  0  0  0  0  0  0  0  0  0
   53.9370   -0.0118   -0.0427 C   0  0  0  0  0  0  0  0  0  0  0  0
   55.1538   -0.0214   -0.0569 C   0  0  0  0  0  0  0  0  0  0  0  0
   64.8537   -0.0395   -0.0980 C   0  0  0  0  0  0  0  0  0  0  0  0
   66.0723   -0.0341   -0.0938 C   0  0  0  0  0  0  0  0  0  0  0  0
   75.7738   -0.0104   -0.0475 C   0  0  0  0  0  0  0  0  0  0  0  0
   76.9908   -0.0107   -0.0564 C   0  0  0  0  0  0  0  0  0  0  0  0
   56.5628   -0.0281   -0.0706 C   0  0  0  0  0  0  0  0  0  0  0  0
   57.1897   -1.2147    0.3529 C   0  0  0  0  0  0  0  0  0  0  0  0
   56.5488   -2.3797    0.8470 C   0  0  0  0  0  0  0  0  0  0  0  0
   57.5161   -3.3064    1.1269 C   0  0  0  0  0  0  0  0  0  0  0  0
   58.7768   -2.7358    0.8026 C   0  0  0  0  0  0  0  0  0  0  0  0
   58.5297   -1.4659    0.3541 N   0  0  0  0  0  0  0  0  0  0  0  0
   60.0347   -3.3425    0.9056 C   0  0  0  0  0  0  0  0  0  0  0  0
   61.2572   -2.7305    0.6236 C   0  0  0  0  0  0  0  0  0  0  0  0
   62.5292   -3.4292    0.6397 C   0  0  0  0  0  0  0  0  0  0  0  0
   63.4735   -2.5092    0.3520 C   0  0  0  0  0  0  0  0  0  0  0  0
   61.4485   -1.4203    0.3038 N   0  0  0  0  0  0  0  0  0  0  0  0
   62.7793   -1.2523    0.1609 C   0  0  0  0  0  0  0  0  0  0  0  0
   63.4462   -0.0376   -0.1019 C   0  0  0  0  0  0  0  0  0  0  0  0
   62.8147    1.1933   -0.3706 C   0  0  0  0  0  0  0  0  0  0  0  0
   63.4506    2.4424   -0.5856 C   0  0  0  0  0  0  0  0  0  0  0  0
   62.4825    3.3669   -0.8691 C   0  0  0  0  0  0  0  0  0  0  0  0
   61.2244    2.7072   -0.8365 C   0  0  0  0  0  0  0  0  0  0  0  0
   59.9686    3.2729   -1.0904 C   0  0  0  0  0  0  0  0  0  0  0  0
   59.9613    4.6887   -1.5348 C   0  0  0  0  0  0  0  0  0  0  0  0
   59.2893    5.6596   -0.7918 C   0  0  0  0  0  0  0  0  0  0  0  0
   59.2725    6.9843   -1.2120 C   0  0  0  0  0  0  0  0  0  0  0  0
   58.5604    8.0339   -0.4020 C   0  0  0  0  0  0  0  0  0  0  0  0
   59.9341    7.3371   -2.3855 C   0  0  0  0  0  0  0  0  0  0  0  0
   60.6084    6.3812   -3.1378 C   0  0  0  0  0  0  0  0  0  0  0  0
   61.3327    6.7695   -4.3986 C   0  0  0  0  0  0  0  0  0  0  0  0
   60.6214    5.0588   -2.7055 C   0  0  0  0  0  0  0  0  0  0  0  0
   58.7427    2.6175   -0.9651 C   0  0  0  0  0  0  0  0  0  0  0  0
   57.4651    3.2176   -1.3057 C   0  0  0  0  0  0  0  0  0  0  0  0
   56.5210    2.2997   -1.0117 C   0  0  0  0  0  0  0  0  0  0  0  0
   57.2229    1.1382   -0.5034 C   0  0  0  0  0  0  0  0  0  0  0  0
   58.5553    1.3499   -0.5054 N   0  0  0  0  0  0  0  0  0  0  0  0
   61.4743    1.4004   -0.5115 N   0  0  0  0  0  0  0  0  0  0  0  0
   60.0518   -4.7550    1.3609 C   0  0  0  0  0  0  0  0  0  0  0  0
   59.3901   -5.7434    0.6341 C   0  0  0  0  0  0  0  0  0  0  0  0
   59.4055   -7.0668    1.0637 C   0  0  0  0  0  0  0  0  0  0  0  0
   58.6767   -8.1231    0.2774 C   0  0  0  0  0  0  0  0  0  0  0  0
   60.0840   -7.3967    2.2323 C   0  0  0  0  0  0  0  0  0  0  0  0
   60.7500   -6.4212    2.9694 C   0  0  0  0  0  0  0  0  0  0  0  0
   61.4644   -6.7875    4.2423 C   0  0  0  0  0  0  0  0  0  0  0  0
   60.7313   -5.1032    2.5284 C   0  0  0  0  0  0  0  0  0  0  0  0
   55.4842   -2.4849    0.9798 H   0  0  0  0  0  0  0  0  0  0  0  0
   57.3708   -4.2945    1.5321 H   0  0  0  0  0  0  0  0  0  0  0  0
   59.2462   -0.8049    0.0731 H   0  0  0  0  0  0  0  0  0  0  0  0
   62.6587   -4.4830    0.8260 H   0  0  0  0  0  0  0  0  0  0  0  0
   64.5378   -2.6488    0.2562 H   0  0  0  0  0  0  0  0  0  0  0  0
   64.5125    2.6102   -0.5194 H   0  0  0  0  0  0  0  0  0  0  0  0
   62.6249    4.4160   -1.0702 H   0  0  0  0  0  0  0  0  0  0  0  0
   58.7883    5.3748    0.1269 H   0  0  0  0  0  0  0  0  0  0  0  0
   59.2815    8.5955    0.1962 H   0  0  0  0  0  0  0  0  0  0  0  0
   58.0424    8.7380   -1.0542 H   0  0  0  0  0  0  0  0  0  0  0  0
   57.8355    7.5800    0.2735 H   0  0  0  0  0  0  0  0  0  0  0  0
   59.9193    8.3699   -2.7183 H   0  0  0  0  0  0  0  0  0  0  0  0
   61.2553    5.9807   -5.1475 H   0  0  0  0  0  0  0  0  0  0  0  0
   62.3918    6.9293   -4.1841 H   0  0  0  0  0  0  0  0  0  0  0  0
   60.9261    7.6917   -4.8137 H   0  0  0  0  0  0  0  0  0  0  0  0
   61.1291    4.3021   -3.2939 H   0  0  0  0  0  0  0  0  0  0  0  0
   57.3308    4.2008   -1.7268 H   0  0  0  0  0  0  0  0  0  0  0  0
   55.4524    2.3725   -1.1344 H   0  0  0  0  0  0  0  0  0  0  0  0
   60.7598    0.6904   -0.3910 H   0  0  0  0  0  0  0  0  0  0  0  0
   58.8783   -5.4787   -0.2848 H   0  0  0  0  0  0  0  0  0  0  0  0
   59.0690   -9.1154    0.5002 H   0  0  0  0  0  0  0  0  0  0  0  0
   58.7677   -7.9395   -0.7936 H   0  0  0  0  0  0  0  0  0  0  0  0
   57.6148   -8.1100    0.5335 H   0  0  0  0  0  0  0  0  0  0  0  0
   60.0982   -8.4273    2.5720 H   0  0  0  0  0  0  0  0  0  0  0  0
   62.2605   -6.0755    4.4603 H   0  0  0  0  0  0  0  0  0  0  0  0
   61.8936   -7.7873    4.1719 H   0  0  0  0  0  0  0  0  0  0  0  0
   60.7612   -6.7788    5.0783 H   0  0  0  0  0  0  0  0  0  0  0  0
   61.2359   -4.3322    3.1003 H   0  0  0  0  0  0  0  0  0  0  0  0
   67.4796   -0.0330   -0.0844 C   0  0  0  0  0  0  0  0  0  0  0  0
   68.1117   -1.1695    0.4583 C   0  0  0  0  0  0  0  0  0  0  0  0
   67.4774   -2.2877    1.0566 C   0  0  0  0  0  0  0  0  0  0  0  0
   68.4471   -3.1884    1.4042 C   0  0  0  0  0  0  0  0  0  0  0  0
   69.7044   -2.6466    1.0237 C   0  0  0  0  0  0  0  0  0  0  0  0
   69.4525   -1.4175    0.4745 N   0  0  0  0  0  0  0  0  0  0  0  0
   70.9617   -3.2454    1.1726 C   0  0  0  0  0  0  0  0  0  0  0  0
   72.1859   -2.6533    0.8582 C   0  0  0  0  0  0  0  0  0  0  0  0
   73.4642   -3.3338    0.9649 C   0  0  0  0  0  0  0  0  0  0  0  0
   74.4074   -2.4312    0.6247 C   0  0  0  0  0  0  0  0  0  0  0  0
   72.3724   -1.3742    0.4310 N   0  0  0  0  0  0  0  0  0  0  0  0
   73.7048   -1.2060    0.3001 C   0  0  0  0  0  0  0  0  0  0  0  0
   74.3647   -0.0106   -0.0451 C   0  0  0  0  0  0  0  0  0  0  0  0
   73.7353    1.2003   -0.3899 C   0  0  0  0  0  0  0  0  0  0  0  0
   74.3744    2.4261   -0.7082 C   0  0  0  0  0  0  0  0  0  0  0  0
   73.4055    3.3330   -1.0422 C   0  0  0  0  0  0  0  0  0  0  0  0
   72.1456    2.6814   -0.9516 C   0  0  0  0  0  0  0  0  0  0  0  0
   70.8888    3.2201   -1.2536 C   0  0  0  0  0  0  0  0  0  0  0  0
   70.8724    4.6133   -1.7653 C   0  0  0  0  0  0  0  0  0  0  0  0
   70.1843    5.6069   -1.0687 C   0  0  0  0  0  0  0  0  0  0  0  0
   70.1654    6.9151   -1.5378 C   0  0  0  0  0  0  0  0  0  0  0  0
   69.4414    7.9895   -0.7721 C   0  0  0  0  0  0  0  0  0  0  0  0
   70.8396    7.2276   -2.7155 C   0  0  0  0  0  0  0  0  0  0  0  0
   71.5265    6.2478   -3.4243 C   0  0  0  0  0  0  0  0  0  0  0  0
   72.2634    6.5923   -4.6905 C   0  0  0  0  0  0  0  0  0  0  0  0
   71.5421    4.9423   -2.9426 C   0  0  0  0  0  0  0  0  0  0  0  0
   69.6677    2.5572   -1.1196 C   0  0  0  0  0  0  0  0  0  0  0  0
   68.3984    3.1139   -1.5500 C   0  0  0  0  0  0  0  0  0  0  0  0
   67.4549    2.2033   -1.2314 C   0  0  0  0  0  0  0  0  0  0  0  0
   68.1470    1.0938   -0.6085 C   0  0  0  0  0  0  0  0  0  0  0  0
   69.4761    1.3219   -0.5787 N   0  0  0  0  0  0  0  0  0  0  0  0
   72.3945    1.4014   -0.5339 N   0  0  0  0  0  0  0  0  0  0  0  0
   70.9729   -4.6268    1.7154 C   0  0  0  0  0  0  0  0  0  0  0  0
   70.3181   -5.6542    1.0380 C   0  0  0  0  0  0  0  0  0  0  0  0
   70.3310   -6.9524    1.5384 C   0  0  0  0  0  0  0  0  0  0  0  0
   69.6112   -8.0512    0.8040 C   0  0  0  0  0  0  0  0  0  0  0  0
   70.9996   -7.2172    2.7290 C   0  0  0  0  0  0  0  0  0  0  0  0
   71.6565   -6.2016    3.4189 C   0  0  0  0  0  0  0  0  0  0  0  0
   72.3605   -6.4997    4.7151 C   0  0  0  0  0  0  0  0  0  0  0  0
   71.6402   -4.9092    2.9074 C   0  0  0  0  0  0  0  0  0  0  0  0
   66.4154   -2.3811    1.2115 H   0  0  0  0  0  0  0  0  0  0  0  0
   68.3060   -4.1391    1.8919 H   0  0  0  0  0  0  0  0  0  0  0  0
   70.1662   -0.7827    0.1329 H   0  0  0  0  0  0  0  0  0  0  0  0
   73.5994   -4.3645    1.2502 H   0  0  0  0  0  0  0  0  0  0  0  0
   75.4772   -2.5594    0.5894 H   0  0  0  0  0  0  0  0  0  0  0  0
   75.4399    2.5875   -0.6834 H   0  0  0  0  0  0  0  0  0  0  0  0
   73.5497    4.3637   -1.3220 H   0  0  0  0  0  0  0  0  0  0  0  0
   69.6727    5.3531   -0.1467 H   0  0  0  0  0  0  0  0  0  0  0  0
   70.1459    8.5323   -0.1378 H   0  0  0  0  0  0  0  0  0  0  0  0
   68.9796    8.7052   -1.4530 H   0  0  0  0  0  0  0  0  0  0  0  0
   68.6692    7.5601   -0.1339 H   0  0  0  0  0  0  0  0  0  0  0  0
   70.8248    8.2475   -3.0861 H   0  0  0  0  0  0  0  0  0  0  0  0
   72.1632    5.7930   -5.4254 H   0  0  0  0  0  0  0  0  0  0  0  0
   73.3267    6.7236   -4.4774 H   0  0  0  0  0  0  0  0  0  0  0  0
   71.8849    7.5187   -5.1226 H   0  0  0  0  0  0  0  0  0  0  0  0
   72.0604    4.1675   -3.4971 H   0  0  0  0  0  0  0  0  0  0  0  0
   68.2700    4.0629   -2.0450 H   0  0  0  0  0  0  0  0  0  0  0  0
   66.3928    2.2490   -1.4080 H   0  0  0  0  0  0  0  0  0  0  0  0
   71.6796    0.7019   -0.3639 H   0  0  0  0  0  0  0  0  0  0  0  0
   69.8141   -5.4401    0.1018 H   0  0  0  0  0  0  0  0  0  0  0  0
   70.0160   -9.0279    1.0694 H   0  0  0  0  0  0  0  0  0  0  0  0
   69.6951   -7.9152   -0.2746 H   0  0  0  0  0  0  0  0  0  0  0  0
   68.5504   -8.0389    1.0647 H   0  0  0  0  0  0  0  0  0  0  0  0
   71.0132   -8.2279    3.1238 H   0  0  0  0  0  0  0  0  0  0  0  0
   73.1224   -5.7494    4.9262 H   0  0  0  0  0  0  0  0  0  0  0  0
   72.8320   -7.4824    4.6817 H   0  0  0  0  0  0  0  0  0  0  0  0
   71.6416   -6.4974    5.5377 H   0  0  0  0  0  0  0  0  0  0  0  0
   72.1374   -4.1074    3.4421 H   0  0  0  0  0  0  0  0  0  0  0  0
  1  2  4  0  0  0  0
  2  3  4  0  0  0  0
  3  4  2  0  0  0  0
  4  5  4  0  0  0  0
  2  6  4  0  0  0  0
  5  6  4  0  0  0  0
  5  7  4  0  0  0  0
  7  8  4  0  0  0  0
  8  9  1  0  0  0  0
  9 10  2  0  0  0  0
  8 11  4  0  0  0  0
 10 12  1  0  0  0  0
 11 12  4  0  0  0  0
 12 13  4  0  0  0  0
 13 14  4  0  0  0  0
 14 15  4  0  0  0  0
 15 16  2  0  0  0  0
 16 17  4  0  0  0  0
 17 18  4  0  0  0  0
 18 19  1  0  0  0  0
 19 20  4  0  0  0  0
 20 21  4  0  0  0  0
 21 22  1  0  0  0  0
 21 23  4  0  0  0  0
 23 24  4  0  0  0  0
 24 25  1  0  0  0  0
 19 26  4  0  0  0  0
 24 26  4  0  0  0  0
 18 27  4  0  0  0  0
 27 28  1  0  0  0  0
 28 29  2  0  0  0  0
  1 30  4  0  0  0  0
 29 30  1  0  0  0  0
 27 31  4  0  0  0  0
 30 31  4  0  0  0  0
 14 32  4  0  0  0  0
 17 32  4  0  0  0  0
  7 33  1  0  0  0  0
 33 34  4  0  0  0  0
 34 35  4  0  0  0  0
 35 36  1  0  0  0  0
 35 37  4  0  0  0  0
 37 38  4  0  0  0  0
 38 39  1  0  0  0  0
 33 40  4  0  0  0  0
 38 40  4  0  0  0  0
  1 41  1  0  0  0  0
  3 42  1  0  0  0  0
  4 43  1  0  0  0  0
  6 44  1  0  0  0  0
  9 45  1  0  0  0  0
 10 46  1  0  0  0  0
 15 47  1  0  0  0  0
 16 48  1  0  0  0  0
 20 49  1  0  0  0  0
 22 50  1  0  0  0  0
 22 51  1  0  0  0  0
 22 52  1  0  0  0  0
 23 53  1  0  0  0  0
 25 54  1  0  0  0  0
 25 55  1  0  0  0  0
 25 56  1  0  0  0  0
 26 57  1  0  0  0  0
 28 58  1  0  0  0  0
 29 59  1  0  0  0  0
 32 60  1  0  0  0  0
 34 61  1  0  0  0  0
 36 62  1  0  0  0  0
 36 63  1  0  0  0  0
 36 64  1  0  0  0  0
 37 65  1  0  0  0  0
 39 66  1  0  0  0  0
 39 67  1  0  0  0  0
 39 68  1  0  0  0  0
 40 69  1  0  0  0  0
 70 71  4  0  0  0  0
 71 72  4  0  0  0  0
 72 73  2  0  0  0  0
 73 74  4  0  0  0  0
 71 75  4  0  0  0  0
 74 75  4  0  0  0  0
 74 76  4  0  0  0  0
 76 77  4  0  0  0  0
 77 78  1  0  0  0  0
 78 79  2  0  0  0  0
 77 80  4  0  0  0  0
 79 81  1  0  0  0  0
 80 81  4  0  0  0  0
 81 82  4  0  0  0  0
 82 83  4  0  0  0  0
 83 84  4  0  0  0  0
 84 85  2  0  0  0  0
 85 86  4  0  0  0  0
 86 87  4  0  0  0  0
 87 88  1  0  0  0  0
 88 89  4  0  0  0  0
 89 90  4  0  0  0  0
 90 91  1  0  0  0  0
 90 92  4  0  0  0  0
 92 93  4  0  0  0  0
 93 94  1  0  0  0  0
 88 95  4  0  0  0  0
 93 95  4  0  0  0  0
 87 96  4  0  0  0  0
 96 97  1  0  0  0  0
 97 98  2  0  0  0  0
 70 99  4  0  0  0  0
 98 99  1  0  0  0  0
 96100  4  0  0  0  0
 99100  4  0  0  0  0
 83101  4  0  0  0  0
 86101  4  0  0  0  0
 76102  1  0  0  0  0
102103  4  0  0  0  0
103104  4  0  0  0  0
104105  1  0  0  0  0
104106  4  0  0  0  0
106107  4  0  0  0  0
107108  1  0  0  0  0
102109  4  0  0  0  0
107109  4  0  0  0  0
 70110  1  0  0  0  0
 72111  1  0  0  0  0
 73112  1  0  0  0  0
 75113  1  0  0  0  0
 78114  1  0  0  0  0
 79115  1  0  0  0  0
 84116  1  0  0  0  0
 85117  1  0  0  0  0
 89118  1  0  0  0  0
 91119  1  0  0  0  0
 91120  1  0  0  0  0
 91121  1  0  0  0  0
 92122  1  0  0  0  0
 94123  1  0  0  0  0
 94124  1  0  0  0  0
 94125  1  0  0  0  0
 95126  1  0  0  0  0
 97127  1  0  0  0  0
 98128  1  0  0  0  0
101129  1  0  0  0  0
103130  1  0  0  0  0
105131  1  0  0  0  0
105132  1  0  0  0  0
105133  1  0  0  0  0
106134  1  0  0  0  0
108135  1  0  0  0  0
108136  1  0  0  0  0
108137  1  0  0  0  0
109138  1  0  0  0  0
 13139  4  0  0  0  0
139140  3  0  0  0  0
141142  3  0  0  0  0
 82144  4  0  0  0  0
143144  3  0  0  0  0
140145  4  0  0  0  0
145146  4  0  0  0  0
146147  4  0  0  0  0
147148  2  0  0  0  0
148149  4  0  0  0  0
146150  4  0  0  0  0
149150  4  0  0  0  0
149151  4  0  0  0  0
151152  4  0  0  0  0
152153  1  0  0  0  0
153154  2  0  0  0  0
152155  4  0  0  0  0
154156  1  0  0  0  0
155156  4  0  0  0  0
141157  4  0  0  0  0
156157  4  0  0  0  0
157158  4  0  0  0  0
158159  4  0  0  0  0
159160  2  0  0  0  0
160161  4  0  0  0  0
161162  4  0  0  0  0
162163  1  0  0  0  0
163164  4  0  0  0  0
164165  4  0  0  0  0
165166  1  0  0  0  0
165167  4  0  0  0  0
167168  4  0  0  0  0
168169  1  0  0  0  0
163170  4  0  0  0  0
168170  4  0  0  0  0
162171  4  0  0  0  0
171172  1  0  0  0  0
172173  2  0  0  0  0
145174  4  0  0  0  0
173174  1  0  0  0  0
171175  4  0  0  0  0
174175  4  0  0  0  0
158176  4  0  0  0  0
161176  4  0  0  0  0
151177  1  0  0  0  0
177178  4  0  0  0  0
178179  4  0  0  0  0
179180  1  0  0  0  0
179181  4  0  0  0  0
181182  4  0  0  0  0
182183  1  0  0  0  0
177184  4  0  0  0  0
182184  4  0  0  0  0
147185  1  0  0  0  0
148186  1  0  0  0  0
150187  1  0  0  0  0
153188  1  0  0  0  0
154189  1  0  0  0  0
159190  1  0  0  0  0
160191  1  0  0  0  0
164192  1  0  0  0  0
166193  1  0  0  0  0
166194  1  0  0  0  0
166195  1  0  0  0  0
167196  1  0  0  0  0
169197  1  0  0  0  0
169198  1  0  0  0  0
169199  1  0  0  0  0
170200  1  0  0  0  0
172201  1  0  0  0  0
173202  1  0  0  0  0
176203  1  0  0  0  0
178204  1  0  0  0  0
180205  1  0  0  0  0
180206  1  0  0  0  0
180207  1  0  0  0  0
181208  1  0  0  0  0
183209  1  0  0  0  0
183210  1  0  0  0  0
183211  1  0  0  0  0
184212  1  0  0  0  0
142213  4  0  0  0  0
213214  4  0  0  0  0
214215  4  0  0  0  0
215216  2  0  0  0  0
216217  4  0  0  0  0
214218  4  0  0  0  0
217218  4  0  0  0  0
217219  4  0  0  0  0
219220  4  0  0  0  0
220221  1  0  0  0  0
221222  2  0  0  0  0
220223  4  0  0  0  0
222224  1  0  0  0  0
223224  4  0  0  0  0
143225  4  0  0  0  0
224225  4  0  0  0  0
225226  4  0  0  0  0
226227  4  0  0  0  0
227228  2  0  0  0  0
228229  4  0  0  0  0
229230  4  0  0  0  0
230231  1  0  0  0  0
231232  4  0  0  0  0
232233  4  0  0  0  0
233234  1  0  0  0  0
233235  4  0  0  0  0
235236  4  0  0  0  0
236237  1  0  0  0  0
231238  4  0  0  0  0
236238  4  0  0  0  0
230239  4  0  0  0  0
239240  1  0  0  0  0
240241  2  0  0  0  0
213242  4  0  0  0  0
241242  1  0  0  0  0
239243  4  0  0  0  0
242243  4  0  0  0  0
226244  4  0  0  0  0
229244  4  0  0  0  0
219245  1  0  0  0  0
245246  4  0  0  0  0
246247  4  0  0  0  0
247248  1  0  0  0  0
247249  4  0  0  0  0
249250  4  0  0  0  0
250251  1  0  0  0  0
245252  4  0  0  0  0
250252  4  0  0  0  0
215253  1  0  0  0  0
216254  1  0  0  0  0
218255  1  0  0  0  0
221256  1  0  0  0  0
222257  1  0  0  0  0
227258  1  0  0  0  0
228259  1  0  0  0  0
232260  1  0  0  0  0
234261  1  0  0  0  0
234262  1  0  0  0  0
234263  1  0  0  0  0
235264  1  0  0  0  0
237265  1  0  0  0  0
237266  1  0  0  0  0
237267  1  0  0  0  0
238268  1  0  0  0  0
240269  1  0  0  0  0
241270  1  0  0  0  0
244271  1  0  0  0  0
246272  1  0  0  0  0
248273  1  0  0  0  0
248274  1  0  0  0  0
248275  1  0  0  0  0
249276  1  0  0  0  0
251277  1  0  0  0  0
251278  1  0  0  0  0
251279  1  0  0  0  0
252280  1  0  0  0  0
M  END
