 xtb: 6.5.1 (b24c23e)
          07292218023D

132151  0     0  0            999 V2000
   13.2023   -0.0143   -0.0079 Fe  0  0  0  0  0  0  0  0  0  0  0  0
    9.8149   -0.0036    0.1707 C   0  0  0  0  0  0  0  0  0  0  0  0
   10.4661    1.2122    0.1975 C   0  0  0  0  0  0  0  0  0  0  0  0
    9.7891    2.4725    0.2579 C   0  0  0  0  0  0  0  0  0  0  0  0
   10.7479    3.4238    0.3457 C   0  0  0  0  0  0  0  0  0  0  0  0
   12.0096    2.7410    0.3504 C   0  0  0  0  0  0  0  0  0  0  0  0
   11.8243    1.3904    0.2296 N   0  0  0  0  0  0  0  0  0  0  0  0
   13.2361    3.3785    0.4981 C   0  0  0  0  0  0  0  0  0  0  0  0
   13.2496    4.8470    0.7062 C   0  0  0  0  0  0  0  0  0  0  0  0
   12.6655    5.4036    1.8401 C   0  0  0  0  0  0  0  0  0  0  0  0
   12.6833    6.7836    2.0386 C   0  0  0  0  0  0  0  0  0  0  0  0
   12.0507    7.3170    3.2714 C   0  0  0  0  0  0  0  0  0  0  0  0
   12.1373    8.6503    3.3839 O   0  0  0  0  0  0  0  0  0  0  0  0
   11.5080    6.6384    4.1052 O   0  0  0  0  0  0  0  0  0  0  0  0
   13.2823    7.6179    1.0949 C   0  0  0  0  0  0  0  0  0  0  0  0
   13.8609    7.0655   -0.0371 C   0  0  0  0  0  0  0  0  0  0  0  0
   13.8492    5.6914   -0.2309 C   0  0  0  0  0  0  0  0  0  0  0  0
   14.4478    2.7037    0.4647 C   0  0  0  0  0  0  0  0  0  0  0  0
   15.7186    3.3348    0.6631 C   0  0  0  0  0  0  0  0  0  0  0  0
   16.6609    2.3769    0.4914 C   0  0  0  0  0  0  0  0  0  0  0  0
   14.6145    1.3625    0.2138 N   0  0  0  0  0  0  0  0  0  0  0  0
   15.9631    1.1646    0.1975 C   0  0  0  0  0  0  0  0  0  0  0  0
   16.6139   -0.0353   -0.1152 C   0  0  0  0  0  0  0  0  0  0  0  0
   15.9284   -1.2268   -0.3818 C   0  0  0  0  0  0  0  0  0  0  0  0
   16.5876   -2.4427   -0.7415 C   0  0  0  0  0  0  0  0  0  0  0  0
   15.6249   -3.3906   -0.8422 C   0  0  0  0  0  0  0  0  0  0  0  0
   14.3810   -2.7500   -0.5338 C   0  0  0  0  0  0  0  0  0  0  0  0
   14.5818   -1.4137   -0.2818 N   0  0  0  0  0  0  0  0  0  0  0  0
   13.1643   -3.4136   -0.4696 C   0  0  0  0  0  0  0  0  0  0  0  0
   13.1465   -4.8815   -0.6822 C   0  0  0  0  0  0  0  0  0  0  0  0
   13.8189   -5.7311    0.1988 C   0  0  0  0  0  0  0  0  0  0  0  0
   13.8018   -7.1055    0.0058 C   0  0  0  0  0  0  0  0  0  0  0  0
   13.1191   -7.6471   -1.0705 C   0  0  0  0  0  0  0  0  0  0  0  0
   12.4458   -6.8076   -1.9593 C   0  0  0  0  0  0  0  0  0  0  0  0
   11.7297   -7.4268   -3.1030 C   0  0  0  0  0  0  0  0  0  0  0  0
   11.1046   -6.5386   -3.8893 O   0  0  0  0  0  0  0  0  0  0  0  0
   11.6963   -8.6105   -3.3226 O   0  0  0  0  0  0  0  0  0  0  0  0
   12.4579   -5.4282   -1.7626 C   0  0  0  0  0  0  0  0  0  0  0  0
   11.9606   -2.7659   -0.2153 C   0  0  0  0  0  0  0  0  0  0  0  0
   10.6974   -3.4373   -0.1062 C   0  0  0  0  0  0  0  0  0  0  0  0
    9.7592   -2.4784    0.0735 C   0  0  0  0  0  0  0  0  0  0  0  0
   10.4508   -1.2246    0.0833 C   0  0  0  0  0  0  0  0  0  0  0  0
   11.8000   -1.4153   -0.0619 N   0  0  0  0  0  0  0  0  0  0  0  0
    8.7319    0.0009    0.2192 H   0  0  0  0  0  0  0  0  0  0  0  0
    8.7178    2.5932    0.2336 H   0  0  0  0  0  0  0  0  0  0  0  0
   10.6257    4.4934    0.3999 H   0  0  0  0  0  0  0  0  0  0  0  0
   12.2044    4.7687    2.5887 H   0  0  0  0  0  0  0  0  0  0  0  0
   11.7055    8.9186    4.2113 H   0  0  0  0  0  0  0  0  0  0  0  0
   13.2922    8.6900    1.2493 H   0  0  0  0  0  0  0  0  0  0  0  0
   14.3251    7.7088   -0.7761 H   0  0  0  0  0  0  0  0  0  0  0  0
   14.2959    5.2658   -1.1224 H   0  0  0  0  0  0  0  0  0  0  0  0
   15.8610    4.3749    0.9071 H   0  0  0  0  0  0  0  0  0  0  0  0
   17.7331    2.4684    0.5548 H   0  0  0  0  0  0  0  0  0  0  0  0
   17.6501   -2.5422   -0.8952 H   0  0  0  0  0  0  0  0  0  0  0  0
   15.7358   -4.4292   -1.1078 H   0  0  0  0  0  0  0  0  0  0  0  0
   14.3451   -5.3087    1.0475 H   0  0  0  0  0  0  0  0  0  0  0  0
   14.3236   -7.7536    0.7006 H   0  0  0  0  0  0  0  0  0  0  0  0
   13.0974   -8.7181   -1.2373 H   0  0  0  0  0  0  0  0  0  0  0  0
   10.6641   -7.0199   -4.6084 H   0  0  0  0  0  0  0  0  0  0  0  0
   11.9437   -4.7773   -2.4598 H   0  0  0  0  0  0  0  0  0  0  0  0
   10.5599   -4.5051   -0.1584 H   0  0  0  0  0  0  0  0  0  0  0  0
    8.6929   -2.5895    0.1897 H   0  0  0  0  0  0  0  0  0  0  0  0
   31.7502    0.0025    0.0523 Fe  0  0  0  0  0  0  0  0  0  0  0  0
   35.1378   -0.0535    0.1964 C   0  0  0  0  0  0  0  0  0  0  0  0
   34.4915   -1.2105   -0.1858 C   0  0  0  0  0  0  0  0  0  0  0  0
   35.1736   -2.4218   -0.5295 C   0  0  0  0  0  0  0  0  0  0  0  0
   34.2182   -3.3490   -0.7731 C   0  0  0  0  0  0  0  0  0  0  0  0
   32.9532   -2.7048   -0.5654 C   0  0  0  0  0  0  0  0  0  0  0  0
   33.1336   -1.3865   -0.2442 N   0  0  0  0  0  0  0  0  0  0  0  0
   31.7280   -3.3562   -0.6476 C   0  0  0  0  0  0  0  0  0  0  0  0
   31.7158   -4.8122   -0.9299 C   0  0  0  0  0  0  0  0  0  0  0  0
   32.2951   -5.7094   -0.0377 C   0  0  0  0  0  0  0  0  0  0  0  0
   32.2742   -7.0787   -0.2997 C   0  0  0  0  0  0  0  0  0  0  0  0
   32.9005   -7.9865    0.6945 C   0  0  0  0  0  0  0  0  0  0  0  0
   32.8147   -9.2832    0.3645 O   0  0  0  0  0  0  0  0  0  0  0  0
   33.4389   -7.6181    1.7067 O   0  0  0  0  0  0  0  0  0  0  0  0
   31.6768   -7.5585   -1.4651 C   0  0  0  0  0  0  0  0  0  0  0  0
   31.1030   -6.6660   -2.3569 C   0  0  0  0  0  0  0  0  0  0  0  0
   31.1178   -5.3037   -2.0924 C   0  0  0  0  0  0  0  0  0  0  0  0
   30.5144   -2.7095   -0.4633 C   0  0  0  0  0  0  0  0  0  0  0  0
   29.2454   -3.3743   -0.4768 C   0  0  0  0  0  0  0  0  0  0  0  0
   28.3012   -2.4160   -0.3179 C   0  0  0  0  0  0  0  0  0  0  0  0
   30.3446   -1.3596   -0.2690 N   0  0  0  0  0  0  0  0  0  0  0  0
   28.9959   -1.1721   -0.2034 C   0  0  0  0  0  0  0  0  0  0  0  0
   28.3420    0.0626   -0.1072 C   0  0  0  0  0  0  0  0  0  0  0  0
   29.0246    1.2779    0.0252 C   0  0  0  0  0  0  0  0  0  0  0  0
   28.3620    2.5431    0.0811 C   0  0  0  0  0  0  0  0  0  0  0  0
   29.3233    3.4754    0.2861 C   0  0  0  0  0  0  0  0  0  0  0  0
   30.5692    2.7726    0.3673 C   0  0  0  0  0  0  0  0  0  0  0  0
   30.3723    1.4269    0.1658 N   0  0  0  0  0  0  0  0  0  0  0  0
   31.7833    3.3809    0.6510 C   0  0  0  0  0  0  0  0  0  0  0  0
   31.7996    4.8379    0.9293 C   0  0  0  0  0  0  0  0  0  0  0  0
   31.1244    5.3538    2.0373 C   0  0  0  0  0  0  0  0  0  0  0  0
   31.1437    6.7157    2.3048 C   0  0  0  0  0  0  0  0  0  0  0  0
   31.8311    7.5781    1.4672 C   0  0  0  0  0  0  0  0  0  0  0  0
   32.5076    7.0741    0.3553 C   0  0  0  0  0  0  0  0  0  0  0  0
   33.2305    8.0316   -0.5193 C   0  0  0  0  0  0  0  0  0  0  0  0
   33.8616    7.4477   -1.5481 O   0  0  0  0  0  0  0  0  0  0  0  0
   33.2618    9.2224   -0.3422 O   0  0  0  0  0  0  0  0  0  0  0  0
   32.4936    5.7063    0.0899 C   0  0  0  0  0  0  0  0  0  0  0  0
   32.9866    2.6857    0.6964 C   0  0  0  0  0  0  0  0  0  0  0  0
   34.2445    3.2840    1.0394 C   0  0  0  0  0  0  0  0  0  0  0  0
   35.1842    2.3179    0.9135 C   0  0  0  0  0  0  0  0  0  0  0  0
   34.4985    1.1301    0.5022 C   0  0  0  0  0  0  0  0  0  0  0  0
   33.1521    1.3611    0.3955 N   0  0  0  0  0  0  0  0  0  0  0  0
   36.2200   -0.0752    0.2587 H   0  0  0  0  0  0  0  0  0  0  0  0
   36.2457   -2.5289   -0.5722 H   0  0  0  0  0  0  0  0  0  0  0  0
   34.3450   -4.3779   -1.0682 H   0  0  0  0  0  0  0  0  0  0  0  0
   32.7538   -5.3546    0.8788 H   0  0  0  0  0  0  0  0  0  0  0  0
   33.2425   -9.8076    1.0608 H   0  0  0  0  0  0  0  0  0  0  0  0
   31.6638   -8.6225   -1.6680 H   0  0  0  0  0  0  0  0  0  0  0  0
   30.6396   -7.0321   -3.2660 H   0  0  0  0  0  0  0  0  0  0  0  0
   30.6744   -4.6097   -2.7976 H   0  0  0  0  0  0  0  0  0  0  0  0
   29.1055   -4.4375   -0.5839 H   0  0  0  0  0  0  0  0  0  0  0  0
   27.2295   -2.5266   -0.2799 H   0  0  0  0  0  0  0  0  0  0  0  0
   27.2985    2.6837   -0.0260 H   0  0  0  0  0  0  0  0  0  0  0  0
   29.2097    4.5437    0.3730 H   0  0  0  0  0  0  0  0  0  0  0  0
   30.5944    4.6781    2.6992 H   0  0  0  0  0  0  0  0  0  0  0  0
   30.6204    7.1018    3.1720 H   0  0  0  0  0  0  0  0  0  0  0  0
   31.8554    8.6446    1.6607 H   0  0  0  0  0  0  0  0  0  0  0  0
   34.3050    8.1368   -2.0691 H   0  0  0  0  0  0  0  0  0  0  0  0
   33.0109    5.3179   -0.7794 H   0  0  0  0  0  0  0  0  0  0  0  0
   34.3773    4.3103    1.3412 H   0  0  0  0  0  0  0  0  0  0  0  0
   36.2476    2.3838    1.0801 H   0  0  0  0  0  0  0  0  0  0  0  0
   18.0134   -0.0407   -0.1609 C   0  0  0  0  0  0  0  0  0  0  0  0
   19.2395   -0.0284   -0.1890 C   0  0  0  0  0  0  0  0  0  0  0  0
   20.5784   -0.0119   -0.2097 C   0  0  0  0  0  0  0  0  0  0  0  0
   21.8108    0.0204   -0.2157 C   0  0  0  0  0  0  0  0  0  0  0  0
   23.1449    0.0410   -0.2108 C   0  0  0  0  0  0  0  0  0  0  0  0
   24.3774    0.0648   -0.1963 C   0  0  0  0  0  0  0  0  0  0  0  0
   25.7163    0.0732   -0.1737 C   0  0  0  0  0  0  0  0  0  0  0  0
   26.9424    0.0779   -0.1433 C   0  0  0  0  0  0  0  0  0  0  0  0
  2  3  4  0  0  0  0
  3  4  4  0  0  0  0
  4  5  2  0  0  0  0
  5  6  4  0  0  0  0
  1  7  1  0  0  0  0
  3  7  4  0  0  0  0
  6  7  4  0  0  0  0
  6  8  4  0  0  0  0
  8  9  1  0  0  0  0
  9 10  4  0  0  0  0
 10 11  4  0  0  0  0
 11 12  1  0  0  0  0
 12 13  4  0  0  0  0
 12 14  2  0  0  0  0
 11 15  4  0  0  0  0
 15 16  4  0  0  0  0
  9 17  4  0  0  0  0
 16 17  4  0  0  0  0
  8 18  4  0  0  0  0
 18 19  4  0  0  0  0
 19 20  2  0  0  0  0
  1 21  1  0  0  0  0
 18 21  4  0  0  0  0
 20 22  4  0  0  0  0
 21 22  4  0  0  0  0
 22 23  4  0  0  0  0
 23 24  4  0  0  0  0
 24 25  4  0  0  0  0
 25 26  2  0  0  0  0
 26 27  4  0  0  0  0
  1 28  1  0  0  0  0
 24 28  4  0  0  0  0
 27 28  4  0  0  0  0
 27 29  4  0  0  0  0
 29 30  1  0  0  0  0
 30 31  4  0  0  0  0
 31 32  4  0  0  0  0
 32 33  4  0  0  0  0
 33 34  4  0  0  0  0
 34 35  1  0  0  0  0
 35 36  4  0  0  0  0
 35 37  2  0  0  0  0
 30 38  4  0  0  0  0
 34 38  4  0  0  0  0
 29 39  4  0  0  0  0
 39 40  4  0  0  0  0
 40 41  2  0  0  0  0
  2 42  4  0  0  0  0
 41 42  4  0  0  0  0
  1 43  1  0  0  0  0
 39 43  4  0  0  0  0
 42 43  4  0  0  0  0
  2 44  1  0  0  0  0
  4 45  1  0  0  0  0
  5 46  1  0  0  0  0
 10 47  1  0  0  0  0
 13 48  1  0  0  0  0
 15 49  1  0  0  0  0
 16 50  1  0  0  0  0
 17 51  1  0  0  0  0
 19 52  1  0  0  0  0
 20 53  1  0  0  0  0
 25 54  1  0  0  0  0
 26 55  1  0  0  0  0
 31 56  1  0  0  0  0
 32 57  1  0  0  0  0
 33 58  1  0  0  0  0
 36 59  1  0  0  0  0
 38 60  1  0  0  0  0
 40 61  1  0  0  0  0
 41 62  1  0  0  0  0
 64 65  4  0  0  0  0
 65 66  4  0  0  0  0
 66 67  2  0  0  0  0
 67 68  4  0  0  0  0
 63 69  1  0  0  0  0
 65 69  4  0  0  0  0
 68 69  4  0  0  0  0
 68 70  4  0  0  0  0
 70 71  1  0  0  0  0
 71 72  4  0  0  0  0
 72 73  4  0  0  0  0
 73 74  1  0  0  0  0
 74 75  4  0  0  0  0
 74 76  2  0  0  0  0
 73 77  4  0  0  0  0
 77 78  4  0  0  0  0
 71 79  4  0  0  0  0
 78 79  4  0  0  0  0
 70 80  4  0  0  0  0
 80 81  4  0  0  0  0
 81 82  2  0  0  0  0
 63 83  1  0  0  0  0
 80 83  4  0  0  0  0
 82 84  4  0  0  0  0
 83 84  4  0  0  0  0
 84 85  4  0  0  0  0
 85 86  4  0  0  0  0
 86 87  4  0  0  0  0
 87 88  2  0  0  0  0
 88 89  4  0  0  0  0
 63 90  1  0  0  0  0
 86 90  4  0  0  0  0
 89 90  4  0  0  0  0
 89 91  4  0  0  0  0
 91 92  1  0  0  0  0
 92 93  4  0  0  0  0
 93 94  4  0  0  0  0
 94 95  4  0  0  0  0
 95 96  4  0  0  0  0
 96 97  1  0  0  0  0
 97 98  4  0  0  0  0
 97 99  2  0  0  0  0
 92100  4  0  0  0  0
 96100  4  0  0  0  0
 91101  4  0  0  0  0
101102  4  0  0  0  0
102103  2  0  0  0  0
 64104  4  0  0  0  0
103104  4  0  0  0  0
 63105  1  0  0  0  0
101105  4  0  0  0  0
104105  4  0  0  0  0
 64106  1  0  0  0  0
 66107  1  0  0  0  0
 67108  1  0  0  0  0
 72109  1  0  0  0  0
 75110  1  0  0  0  0
 77111  1  0  0  0  0
 78112  1  0  0  0  0
 79113  1  0  0  0  0
 81114  1  0  0  0  0
 82115  1  0  0  0  0
 87116  1  0  0  0  0
 88117  1  0  0  0  0
 93118  1  0  0  0  0
 94119  1  0  0  0  0
 95120  1  0  0  0  0
 98121  1  0  0  0  0
100122  1  0  0  0  0
102123  1  0  0  0  0
103124  1  0  0  0  0
 23125  4  0  0  0  0
125126  3  0  0  0  0
126127  4  0  0  0  0
127128  3  0  0  0  0
128129  4  0  0  0  0
129130  3  0  0  0  0
130131  4  0  0  0  0
 85132  4  0  0  0  0
131132  3  0  0  0  0
M  END
