530

C 86.986904 -0.033702 -0.146955
C 87.714287 -0.230474 1.222831
C 87.113009 -0.583142 2.411143
C 88.133323 -0.617721 3.395333
C 89.314177 -0.254514 2.784737
N 89.057875 -0.079135 1.446675
C 90.732258 -0.107002 3.483040
C 91.866275 -0.050506 2.727156
C 93.178167 0.099775 3.324107
C 94.079874 0.160769 2.352180
N 92.060685 -0.090988 1.370870
C 93.394808 0.028495 1.080629
C 94.055088 0.036881 -0.106957
C 93.271291 -0.154784 -1.475414
C 93.783257 -0.704260 -2.634166
C 92.761405 -0.666063 -3.615705
C 91.657525 -0.090901 -3.031842
C 90.255014 0.173899 -3.736525
C 90.248073 0.387487 -5.214852
C 90.740129 1.576797 -5.790742
O 91.234468 2.661748 -5.114568
C 90.353296 3.229262 -4.145050
C 90.841590 1.702288 -7.183948
C 90.412214 0.677501 -8.023212
C 89.896327 -0.492801 -7.471723
C 89.832627 -0.655777 -6.081275
O 89.327933 -1.799524 -5.510771
C 89.574969 -3.021568 -6.200529
C 89.131862 0.200225 -2.971812
C 87.800835 0.363441 -3.528555
C 86.917195 0.282354 -2.536903
C 87.651510 0.092004 -1.310238
N 88.978313 0.074738 -1.618809
N 91.958721 0.164739 -1.712562
C 90.769539 0.008055 4.972924
C 90.468996 1.222217 5.629672
O 90.005304 2.342691 4.987933
C 91.018929 3.016732 4.245987
C 90.501664 1.313508 7.026020
C 90.859729 0.209123 7.792488
C 91.146084 -1.003278 7.164425
C 91.100945 -1.115371 5.765470
O 91.306348 -2.303199 5.109566
C 92.091956 -3.289013 5.759590
H 85.895314 0.002630 -0.141923
H 86.062974 -0.788270 2.552907
H 88.015227 -0.856515 4.439675
H 89.756090 0.119229 0.733765
H 93.391650 0.163553 4.375081
H 95.137810 0.271197 2.506485
H 94.776948 -1.101622 -2.756399
H 92.817704 -1.019045 -4.632965
H 90.865277 3.256665 -3.173832
H 90.140192 4.261615 -4.443875
H 89.403675 2.711848 -4.039100
H 91.259002 2.612643 -7.602922
H 90.479510 0.789530 -9.098857
H 89.549461 -1.276482 -8.136842
H 89.426207 -3.847812 -5.501864
H 88.856426 -3.146774 -7.017484
H 90.603461 -3.076192 -6.572348
H 87.563204 0.486075 -4.567639
H 85.845733 0.334369 -2.627906
H 91.282239 0.457250 -1.012639
H 91.299854 3.934558 4.771780
H 90.606762 3.304278 3.273552
H 91.919752 2.432590 4.074087
H 90.234221 2.248605 7.507136
H 90.888817 0.290220 8.875674
H 91.374145 -1.860069 7.786649
H 91.516178 -3.782728 6.545095
H 92.366115 -4.044669 5.020637
H 93.016997 -2.865398 6.166518
C 180.111457 -0.029888 -0.060874
C 179.384074 -0.347039 -1.407888
C 179.985352 -0.803424 -2.560352
C 178.965038 -0.924914 -3.537627
C 177.784184 -0.509126 -2.961547
N 178.040486 -0.216091 -1.644240
C 176.366103 -0.423954 -3.670160
C 175.232086 -0.300825 -2.922235
C 173.920194 -0.203931 -3.530139
C 173.018487 -0.057213 -2.567415
N 175.037676 -0.221193 -1.567684
C 173.703553 -0.076508 -1.289148
C 173.043273 0.036881 -0.106957
C 173.827070 -0.033001 1.273088
C 173.315104 -0.477838 2.475897
C 174.336956 -0.352979 3.450211
C 175.440836 0.168290 2.817767
C 176.843347 0.494377 3.496268
C 176.850288 0.837878 4.949910
C 176.358232 2.073462 5.418356
O 175.863893 3.094357 4.648874
C 176.745065 3.573898 3.632962
C 176.256771 2.321682 6.795003
C 176.686147 1.375140 7.721615
C 177.202034 0.160648 7.275794
C 177.265734 -0.124667 5.905209
O 177.770428 -1.314390 5.438099
C 177.523392 -2.470640 6.233237
C 177.966499 0.452965 2.732223
C 179.297526 0.664783 3.272349
C 180.181166 0.496308 2.291755
C 179.446851 0.198212 1.086733
N 178.120048 0.208304 1.395621
N 175.139640 0.306244 1.481046
C 176.328822 -0.441120 -5.164382
C 176.629365 0.710199 -5.925942
O 177.093057 1.883040 -5.385818
C 176.079432 2.620060 -4.706394
C 176.596697 0.677632 -7.324892
C 176.238632 -0.490215 -7.990680
C 175.952277 -1.642315 -7.257848
C 175.997416 -1.630240 -5.854461
O 175.792013 -2.755401 -5.096071
C 175.006405 -3.794843 -5.656358
H 181.203047 0.005857 -0.069099
H 181.035387 -1.020286 -2.683418
H 179.083134 -1.255139 -4.556756
H 177.342271 0.044549 -0.951669
H 173.706711 -0.233355 -4.582634
H 171.960551 0.039134 -2.730882
H 172.321413 -0.862832 2.632796
H 174.280657 -0.614607 4.494704
H 176.233084 3.515295 2.663126
H 176.958169 4.628636 3.839310
H 177.694686 3.049142 3.573190
H 175.839359 3.265526 7.131820
H 176.618851 1.581865 8.783136
H 177.548900 -0.561136 8.007619
H 177.672154 -3.355439 5.610387
H 178.241935 -2.523100 7.058064
H 176.494900 -2.492164 6.608431
H 179.535157 0.878838 4.296514
H 181.252628 0.556168 2.377801
H 175.816122 0.535705 0.757995
H 175.798507 3.487786 -5.311303
H 176.491599 2.992486 -3.763203
H 175.178609 2.053411 -4.483504
H 176.864140 1.566513 -7.886827
H 176.209544 -0.505237 -9.076793
H 175.724216 -2.550781 -7.801855
H 175.582183 -4.356096 -6.395117
H 174.732246 -4.482181 -4.853467
H 174.081364 -3.408879 -6.099157
C 97.876566 0.049612 -0.104432
C 96.624296 0.030431 -0.108781
C 99.190234 0.048846 -0.102500
C 100.693368 0.030431 -0.108781
C 111.849920 0.049612 -0.104432
C 110.597649 0.030431 -0.108781
C 113.163588 0.048846 -0.102500
C 114.666721 0.030431 -0.108781
C 125.823273 0.049612 -0.104432
C 124.571003 0.030431 -0.108781
C 127.136941 0.048846 -0.102500
C 128.640075 0.030431 -0.108781
C 139.796627 0.049612 -0.104432
C 138.544356 0.030431 -0.108781
C 141.110295 0.048846 -0.102500
C 142.613428 0.030431 -0.108781
C 153.769980 0.049612 -0.104432
C 152.517710 0.030431 -0.108781
C 155.083648 0.048846 -0.102500
C 156.586782 0.030431 -0.108781
C 167.743333 0.049612 -0.104432
C 166.491063 0.030431 -0.108781
C 169.057002 0.048846 -0.102500
C 170.560135 0.030431 -0.108781
C 102.061675 -0.016986 0.050629
C 102.852837 1.239398 0.614013
C 102.323945 2.273710 1.357703
C 103.358837 3.221228 1.544350
C 104.493536 2.734667 0.931853
N 104.192503 1.496333 0.421498
C 105.900984 3.468000 0.835793
C 107.032987 2.746512 0.604505
C 108.333736 3.375033 0.482971
C 109.243842 2.428211 0.302771
N 107.238154 1.401440 0.447201
C 108.570740 1.146272 0.258909
C 109.239925 -0.016986 0.050629
C 108.438320 -1.380682 -0.052349
C 108.937111 -2.651722 0.179350
C 107.901226 -3.573855 -0.105750
C 106.802149 -2.836198 -0.510228
C 105.407367 -3.421815 -0.988483
C 105.413497 -4.768655 -1.638480
C 105.049577 -5.900695 -0.859985
O 104.725107 -5.684254 0.455955
C 103.785767 -6.575046 1.039819
C 105.091873 -7.190982 -1.407609
C 105.502178 -7.379447 -2.718693
C 105.867238 -6.279268 -3.486932
C 105.814091 -4.974623 -2.975681
O 106.224676 -4.047291 -3.903826
C 105.554332 -2.785935 -3.887798
C 104.269857 -2.693464 -0.818469
C 102.965844 -3.201975 -1.198004
C 102.053165 -2.284577 -0.904607
C 102.730558 -1.133576 -0.338457
N 104.067200 -1.436225 -0.316856
N 107.117519 -1.503942 -0.409801
C 105.930348 4.952458 0.987589
C 105.997123 5.788984 -0.145196
O 106.057447 5.230367 -1.399400
C 104.922365 5.585959 -2.191617
C 106.066485 7.183581 -0.010403
C 106.034823 7.769225 1.252998
C 105.928381 6.963823 2.384832
C 105.895384 5.569352 2.257078
O 105.734607 4.864256 3.422390
C 106.970593 4.288855 3.852181
H 101.304204 2.357942 1.711477
H 103.287767 4.160118 2.070156
H 104.863004 0.863902 -0.012595
H 108.537703 4.427698 0.542383
H 110.296854 2.600249 0.192056
H 109.940208 -2.894343 0.504350
H 107.953057 -4.653486 -0.037873
H 103.386404 -6.103020 1.944462
H 104.280689 -7.506469 1.343053
H 102.936408 -6.775028 0.370340
H 104.846008 -8.060678 -0.811182
H 105.552354 -8.377437 -3.141804
H 106.196108 -6.428138 -4.506269
H 105.558885 -2.442972 -4.937907
H 104.490752 -2.885282 -3.600733
H 106.096493 -2.042496 -3.288451
H 102.765754 -4.160578 -1.637007
H 100.999095 -2.398325 -1.076199
H 106.471699 -0.727557 -0.532268
H 105.150338 6.500661 -2.755183
H 104.012840 5.738607 -1.597956
H 104.742995 4.780488 -2.917789
H 106.162246 7.810126 -0.891586
H 106.093329 8.848494 1.353153
H 105.894648 7.408197 3.371762
H 107.717029 4.175444 3.062798
H 106.753479 3.302603 4.282417
H 107.396573 4.920894 4.640172
C 116.035028 -0.016986 0.050629
C 116.826191 1.239398 0.614013
C 116.297298 2.273710 1.357703
C 117.332191 3.221228 1.544350
C 118.466889 2.734667 0.931853
N 118.165857 1.496333 0.421498
C 119.874337 3.468000 0.835793
C 121.006341 2.746512 0.604505
C 122.307090 3.375033 0.482971
C 123.217195 2.428211 0.302771
N 121.211508 1.401440 0.447201
C 122.544093 1.146272 0.258909
C 123.213279 -0.016986 0.050629
C 122.411673 -1.380682 -0.052349
C 122.910464 -2.651722 0.179350
C 121.874579 -3.573855 -0.105750
C 120.775502 -2.836198 -0.510228
C 119.380721 -3.421815 -0.988483
C 119.386850 -4.768655 -1.638480
C 119.022931 -5.900695 -0.859985
O 118.698461 -5.684254 0.455955
C 117.759121 -6.575046 1.039819
C 119.065226 -7.190982 -1.407609
C 119.475532 -7.379447 -2.718693
C 119.840592 -6.279268 -3.486932
C 119.787445 -4.974623 -2.975681
O 120.198029 -4.047291 -3.903826
C 119.527685 -2.785935 -3.887798
C 118.243211 -2.693464 -0.818469
C 116.939198 -3.201975 -1.198004
C 116.026519 -2.284577 -0.904607
C 116.703912 -1.133576 -0.338457
N 118.040554 -1.436225 -0.316856
N 121.090873 -1.503942 -0.409801
C 119.903701 4.952458 0.987589
C 119.970477 5.788984 -0.145196
O 120.030801 5.230367 -1.399400
C 118.895719 5.585959 -2.191617
C 120.039839 7.183581 -0.010403
C 120.008176 7.769225 1.252998
C 119.901734 6.963823 2.384832
C 119.868738 5.569352 2.257078
O 119.707961 4.864256 3.422390
C 120.943947 4.288855 3.852181
H 115.277557 2.357942 1.711477
H 117.261120 4.160118 2.070156
H 118.836358 0.863902 -0.012595
H 122.511056 4.427698 0.542383
H 124.270208 2.600249 0.192056
H 123.913561 -2.894343 0.504350
H 121.926410 -4.653486 -0.037873
H 117.359757 -6.103020 1.944462
H 118.254043 -7.506469 1.343053
H 116.909761 -6.775028 0.370340
H 118.819361 -8.060678 -0.811182
H 119.525707 -8.377437 -3.141804
H 120.169461 -6.428138 -4.506269
H 119.532239 -2.442972 -4.937907
H 118.464105 -2.885282 -3.600733
H 120.069847 -2.042496 -3.288451
H 116.739107 -4.160578 -1.637007
H 114.972449 -2.398325 -1.076199
H 120.445053 -0.727557 -0.532268
H 119.123692 6.500661 -2.755183
H 117.986193 5.738607 -1.597956
H 118.716349 4.780488 -2.917789
H 120.135600 7.810126 -0.891586
H 120.066683 8.848494 1.353153
H 119.868001 7.408197 3.371762
H 121.690382 4.175444 3.062798
H 120.726833 3.302603 4.282417
H 121.369926 4.920894 4.640172
C 130.008382 -0.016986 0.050629
C 130.799544 1.239398 0.614013
C 130.270652 2.273710 1.357703
C 131.305544 3.221228 1.544350
C 132.440243 2.734667 0.931853
N 132.139210 1.496333 0.421498
C 133.847691 3.468000 0.835793
C 134.979694 2.746512 0.604505
C 136.280443 3.375033 0.482971
C 137.190549 2.428211 0.302771
N 135.184861 1.401440 0.447201
C 136.517447 1.146272 0.258909
C 137.186632 -0.016986 0.050629
C 136.385027 -1.380682 -0.052349
C 136.883818 -2.651722 0.179350
C 135.847933 -3.573855 -0.105750
C 134.748856 -2.836198 -0.510228
C 133.354074 -3.421815 -0.988483
C 133.360204 -4.768655 -1.638480
C 132.996284 -5.900695 -0.859985
O 132.671814 -5.684254 0.455955
C 131.732474 -6.575046 1.039819
C 133.038580 -7.190982 -1.407609
C 133.448885 -7.379447 -2.718693
C 133.813945 -6.279268 -3.486932
C 133.760798 -4.974623 -2.975681
O 134.171383 -4.047291 -3.903826
C 133.501039 -2.785935 -3.887798
C 132.216564 -2.693464 -0.818469
C 130.912551 -3.201975 -1.198004
C 129.999872 -2.284577 -0.904607
C 130.677265 -1.133576 -0.338457
N 132.013907 -1.436225 -0.316856
N 135.064226 -1.503942 -0.409801
C 133.877055 4.952458 0.987589
C 133.943830 5.788984 -0.145196
O 134.004154 5.230367 -1.399400
C 132.869072 5.585959 -2.191617
C 134.013192 7.183581 -0.010403
C 133.981530 7.769225 1.252998
C 133.875088 6.963823 2.384832
C 133.842091 5.569352 2.257078
O 133.681314 4.864256 3.422390
C 134.917300 4.288855 3.852181
H 129.250911 2.357942 1.711477
H 131.234474 4.160118 2.070156
H 132.809711 0.863902 -0.012595
H 136.484410 4.427698 0.542383
H 138.243561 2.600249 0.192056
H 137.886915 -2.894343 0.504350
H 135.899764 -4.653486 -0.037873
H 131.333111 -6.103020 1.944462
H 132.227396 -7.506469 1.343053
H 130.883115 -6.775028 0.370340
H 132.792715 -8.060678 -0.811182
H 133.499061 -8.377437 -3.141804
H 134.142815 -6.428138 -4.506269
H 133.505592 -2.442972 -4.937907
H 132.437459 -2.885282 -3.600733
H 134.043200 -2.042496 -3.288451
H 130.712461 -4.160578 -1.637007
H 128.945802 -2.398325 -1.076199
H 134.418406 -0.727557 -0.532268
H 133.097045 6.500661 -2.755183
H 131.959547 5.738607 -1.597956
H 132.689702 4.780488 -2.917789
H 134.108953 7.810126 -0.891586
H 134.040036 8.848494 1.353153
H 133.841355 7.408197 3.371762
H 135.663736 4.175444 3.062798
H 134.700186 3.302603 4.282417
H 135.343280 4.920894 4.640172
C 143.981735 -0.016986 0.050629
C 144.772898 1.239398 0.614013
C 144.244005 2.273710 1.357703
C 145.278897 3.221228 1.544350
C 146.413596 2.734667 0.931853
N 146.112564 1.496333 0.421498
C 147.821044 3.468000 0.835793
C 148.953048 2.746512 0.604505
C 150.253797 3.375033 0.482971
C 151.163902 2.428211 0.302771
N 149.158215 1.401440 0.447201
C 150.490800 1.146272 0.258909
C 151.159986 -0.016986 0.050629
C 150.358380 -1.380682 -0.052349
C 150.857171 -2.651722 0.179350
C 149.821286 -3.573855 -0.105750
C 148.722209 -2.836198 -0.510228
C 147.327428 -3.421815 -0.988483
C 147.333557 -4.768655 -1.638480
C 146.969638 -5.900695 -0.859985
O 146.645167 -5.684254 0.455955
C 145.705828 -6.575046 1.039819
C 147.011933 -7.190982 -1.407609
C 147.422239 -7.379447 -2.718693
C 147.787299 -6.279268 -3.486932
C 147.734152 -4.974623 -2.975681
O 148.144736 -4.047291 -3.903826
C 147.474392 -2.785935 -3.887798
C 146.189918 -2.693464 -0.818469
C 144.885905 -3.201975 -1.198004
C 143.973226 -2.284577 -0.904607
C 144.650619 -1.133576 -0.338457
N 145.987261 -1.436225 -0.316856
N 149.037580 -1.503942 -0.409801
C 147.850408 4.952458 0.987589
C 147.917184 5.788984 -0.145196
O 147.977508 5.230367 -1.399400
C 146.842426 5.585959 -2.191617
C 147.986546 7.183581 -0.010403
C 147.954883 7.769225 1.252998
C 147.848441 6.963823 2.384832
C 147.815445 5.569352 2.257078
O 147.654668 4.864256 3.422390
C 148.890654 4.288855 3.852181
H 143.224264 2.357942 1.711477
H 145.207827 4.160118 2.070156
H 146.783065 0.863902 -0.012595
H 150.457763 4.427698 0.542383
H 152.216915 2.600249 0.192056
H 151.860268 -2.894343 0.504350
H 149.873117 -4.653486 -0.037873
H 145.306464 -6.103020 1.944462
H 146.200750 -7.506469 1.343053
H 144.856468 -6.775028 0.370340
H 146.766068 -8.060678 -0.811182
H 147.472414 -8.377437 -3.141804
H 148.116168 -6.428138 -4.506269
H 147.478946 -2.442972 -4.937907
H 146.410812 -2.885282 -3.600733
H 148.016554 -2.042496 -3.288451
H 144.685814 -4.160578 -1.637007
H 142.919156 -2.398325 -1.076199
H 148.391760 -0.727557 -0.532268
H 147.070399 6.500661 -2.755183
H 145.932900 5.738607 -1.597956
H 146.663056 4.780488 -2.917789
H 148.082306 7.810126 -0.891586
H 148.013390 8.848494 1.353153
H 147.814708 7.408197 3.371762
H 149.637089 4.175444 3.062798
H 148.673540 3.302603 4.282417
H 149.316633 4.920894 4.640172
C 157.955089 -0.016986 0.050629
C 158.746251 1.239398 0.614013
C 158.217359 2.273710 1.357703
C 159.252251 3.221228 1.544350
C 160.386950 2.734667 0.931853
N 160.085917 1.496333 0.421498
C 161.794398 3.468000 0.835793
C 162.926401 2.746512 0.604505
C 164.227150 3.375033 0.482971
C 165.137256 2.428211 0.302771
N 163.131568 1.401440 0.447201
C 164.464154 1.146272 0.258909
C 165.133339 -0.016986 0.050629
C 164.331734 -1.380682 -0.052349
C 164.830525 -2.651722 0.179350
C 163.794640 -3.573855 -0.105750
C 162.695563 -2.836198 -0.510228
C 161.300781 -3.421815 -0.988483
C 161.306911 -4.768655 -1.638480
C 160.942991 -5.900695 -0.859985
O 160.618521 -5.684254 0.455955
C 159.679181 -6.575046 1.039819
C 160.985287 -7.190982 -1.407609
C 161.395592 -7.379447 -2.718693
C 161.760652 -6.279268 -3.486932
C 161.707505 -4.974623 -2.975681
O 162.118090 -4.047291 -3.903826
C 161.447746 -2.785935 -3.887798
C 160.163271 -2.693464 -0.818469
C 158.859258 -3.201975 -1.198004
C 157.946579 -2.284577 -0.904607
C 158.623972 -1.133576 -0.338457
N 159.960614 -1.436225 -0.316856
N 163.010933 -1.503942 -0.409801
C 161.823762 4.952458 0.987589
C 161.890537 5.788984 -0.145196
O 161.950861 5.230367 -1.399400
C 160.815779 5.585959 -2.191617
C 161.959899 7.183581 -0.010403
C 161.928237 7.769225 1.252998
C 161.821795 6.963823 2.384832
C 161.788798 5.569352 2.257078
O 161.628021 4.864256 3.422390
C 162.864007 4.288855 3.852181
H 157.197618 2.357942 1.711477
H 159.181181 4.160118 2.070156
H 160.756418 0.863902 -0.012595
H 164.431117 4.427698 0.542383
H 166.190268 2.600249 0.192056
H 165.833622 -2.894343 0.504350
H 163.846471 -4.653486 -0.037873
H 159.279818 -6.103020 1.944462
H 160.174103 -7.506469 1.343053
H 158.829822 -6.775028 0.370340
H 160.739422 -8.060678 -0.811182
H 161.445767 -8.377437 -3.141804
H 162.089522 -6.428138 -4.506269
H 161.452299 -2.442972 -4.937907
H 160.384166 -2.885282 -3.600733
H 161.989907 -2.042496 -3.288451
H 158.659168 -4.160578 -1.637007
H 156.892509 -2.398325 -1.076199
H 162.365113 -0.727557 -0.532268
H 161.043752 6.500661 -2.755183
H 159.906254 5.738607 -1.597956
H 160.636409 4.780488 -2.917789
H 162.055660 7.810126 -0.891586
H 161.986743 8.848494 1.353153
H 161.788062 7.408197 3.371762
H 163.610443 4.175444 3.062798
H 162.646893 3.302603 4.282417
H 163.289987 4.920894 4.640172
