156

Ni 13.469125 -0.006951 -0.004747
C 10.095257 0.125567 0.034536
C 10.763973 1.178207 0.513148
C 10.120656 2.359736 1.075933
C 11.067670 3.212199 1.421057
C 12.368114 2.614904 1.090672
N 12.183547 1.320711 0.518246
C 13.561873 3.212437 1.272989
C 13.607428 4.580331 1.852549
C 13.523694 5.713569 1.009350
C 13.385899 5.563119 -0.483683
C 13.566635 6.998845 1.570889
C 13.686232 7.171504 2.954757
C 13.772130 8.551445 3.538231
C 13.794986 6.049894 3.784903
C 13.748177 4.753790 3.249401
C 13.859541 3.567573 4.171897
C 14.854956 2.572989 0.919660
C 16.147093 3.263688 0.991851
C 17.082291 2.404702 0.643827
N 14.992347 1.337694 0.544258
C 16.394543 1.152930 0.347956
C 16.989542 -0.000801 -0.000560
C 16.232295 -1.242763 -0.288192
C 16.788582 -2.441627 -0.411067
C 15.739600 -3.370693 -0.777677
C 14.608219 -2.680343 -0.854159
N 14.828521 -1.301923 -0.548050
C 13.306535 -3.259965 -1.274218
C 13.296057 -4.622070 -1.872536
C 13.534726 -4.789764 -3.256723
C 13.802454 -3.604697 -4.148173
C 13.531431 -6.079687 -3.808787
C 13.292681 -7.200788 -3.006612
C 13.267107 -8.566811 -3.627423
C 13.043560 -7.033183 -1.638955
C 13.054259 -5.755134 -1.059650
C 12.793181 -5.611457 0.417704
C 12.144861 -2.597225 -1.130719
C 10.824862 -3.092801 -1.513520
C 9.963723 -2.165686 -1.142412
C 10.725882 -1.077198 -0.531916
N 11.999160 -1.318229 -0.518847
H 9.012082 0.150924 0.056865
H 9.057569 2.525717 1.193845
H 10.889827 4.183510 1.864333
H 12.434277 5.043727 -0.721839
H 14.235930 4.971160 -0.883242
H 13.381372 6.547451 -0.998106
H 13.507423 7.870829 0.930024
H 13.348270 8.570151 4.564990
H 14.834951 8.869366 3.578924
H 13.200228 9.276019 2.920079
H 13.914348 6.189418 4.853014
H 14.774536 2.988201 3.927701
H 13.918400 3.877916 5.236463
H 12.970245 2.913460 4.053949
H 16.322744 4.292299 1.278370
H 18.142472 2.616472 0.601191
H 17.834191 -2.688782 -0.287241
H 15.866942 -4.426848 -0.976909
H 12.967354 -2.876750 -4.070305
H 13.898278 -3.904169 -5.213334
H 14.748016 -3.111373 -3.839976
H 13.713190 -6.216131 -4.868688
H 14.168056 -8.710849 -4.261815
H 13.257987 -9.364973 -2.854080
H 12.358511 -8.669753 -4.258085
H 12.844702 -7.902061 -1.022708
H 11.838679 -5.068475 0.578146
H 13.620746 -5.045842 0.894919
H 12.720436 -6.598825 0.921154
H 10.577022 -4.030591 -1.993671
H 8.890501 -2.216509 -1.270617
Ni 31.557147 0.006535 0.000677
C 34.931015 -0.116285 -0.062723
C 34.262299 -1.207208 -0.446136
C 34.905616 -2.449411 -0.858045
C 33.958602 -3.303474 -1.199193
C 32.658158 -2.643740 -1.024069
N 32.842724 -1.313566 -0.541117
C 31.464399 -3.201133 -1.306201
C 31.418844 -4.589429 -1.835030
C 31.502578 -4.823384 -3.228041
C 31.640373 -3.681154 -4.201228
C 31.459637 -6.139587 -3.712676
C 31.340040 -7.222265 -2.833636
C 31.254142 -8.621962 -3.367982
C 31.231286 -6.987662 -1.458095
C 31.278095 -5.681672 -0.947176
C 31.166731 -5.464387 0.539733
C 30.171316 -2.495099 -1.118450
C 28.879179 -3.043476 -1.544548
C 27.943981 -2.182700 -1.200977
N 30.033925 -1.343830 -0.534105
C 28.631729 -1.074602 -0.547837
C 28.036730 -0.000801 -0.000560
C 28.793977 1.094513 0.651733
C 28.237690 2.044663 1.393076
C 29.286672 2.968877 1.771754
C 30.418053 2.523682 1.238617
N 30.197751 1.317109 0.505182
C 31.719737 3.232746 1.336798
C 31.730215 4.629851 1.848084
C 31.491545 5.709166 0.965377
C 31.223818 5.471217 -0.498333
C 31.494841 7.022163 1.460066
C 31.733591 7.275763 2.815071
C 31.759165 8.691267 3.312839
C 31.982712 6.207955 3.685912
C 31.972013 4.884668 3.219101
C 32.233091 3.758180 4.185663
C 32.881411 2.655175 0.981511
C 34.201410 3.277799 1.048389
C 35.062549 2.351880 0.674308
C 34.300390 1.143781 0.361242
N 33.027112 1.308657 0.537544
H 36.014189 -0.150040 -0.064167
H 35.968703 -2.650814 -0.887875
H 34.136445 -4.311247 -1.551797
H 32.591995 -3.141488 -4.013489
H 30.790342 -2.977381 -4.079714
H 31.644900 -4.035284 -5.253907
H 31.518849 -6.325108 -4.778812
H 31.678002 -9.346314 -2.640040
H 30.191321 -8.879542 -3.558724
H 31.826044 -8.716840 -4.315672
H 31.111924 -7.827823 -0.783960
H 30.251736 -4.877258 0.764640
H 31.107872 -6.425354 1.093047
H 32.056027 -4.910731 0.907484
H 28.703528 -3.984070 -2.049936
H 26.883800 -2.305991 -1.378356
H 27.192081 2.137279 1.653539
H 29.159330 3.868914 2.359197
H 32.058918 4.892032 -0.946122
H 31.127994 6.424751 -1.059603
H 30.278256 4.901870 -0.617485
H 31.313082 7.854417 0.789722
H 30.858216 9.234409 2.954794
H 31.768285 8.731801 4.423460
H 32.667761 9.202172 2.929034
H 32.181570 6.408278 4.732134
H 33.187593 3.255295 3.925514
H 31.405526 3.019652 4.138424
H 32.305836 4.122096 5.232526
H 34.449250 4.286914 1.351178
H 36.135771 2.477312 0.616983
C 18.012773 0.014818 0.010365
C 19.470999 -0.007018 -0.007508
C 20.604927 -0.027772 -0.008999
C 21.966309 -0.040362 -0.011190
C 23.240528 -0.030055 -0.015955
C 24.428990 -0.011257 -0.022111
C 25.781351 0.013527 -0.006243
C 26.881618 0.014818 0.010365
