 xtb: 6.5.1 (b24c23e)
          07302205573D

156175  0     0  0            999 V2000
   13.2218    0.0354    0.0123 Ni  0  0  0  0  0  0  0  0  0  0  0  0
    9.8203    0.1154   -0.0428 C   0  0  0  0  0  0  0  0  0  0  0  0
   10.4861    1.1979    0.4933 C   0  0  0  0  0  0  0  0  0  0  0  0
    9.8217    2.3462    1.0313 C   0  0  0  0  0  0  0  0  0  0  0  0
   10.7899    3.2108    1.4149 C   0  0  0  0  0  0  0  0  0  0  0  0
   12.0445    2.5892    1.1083 C   0  0  0  0  0  0  0  0  0  0  0  0
   11.8490    1.3478    0.5567 N   0  0  0  0  0  0  0  0  0  0  0  0
   13.2715    3.2004    1.3163 C   0  0  0  0  0  0  0  0  0  0  0  0
   13.2931    4.5808    1.8776 C   0  0  0  0  0  0  0  0  0  0  0  0
   13.1832    5.6810    1.0223 C   0  0  0  0  0  0  0  0  0  0  0  0
   13.0431    5.4687   -0.4616 C   0  0  0  0  0  0  0  0  0  0  0  0
   13.2027    6.9647    1.5550 C   0  0  0  0  0  0  0  0  0  0  0  0
   13.3286    7.1680    2.9253 C   0  0  0  0  0  0  0  0  0  0  0  0
   13.3687    8.5629    3.4884 C   0  0  0  0  0  0  0  0  0  0  0  0
   13.4382    6.0656    3.7667 C   0  0  0  0  0  0  0  0  0  0  0  0
   13.4215    4.7729    3.2563 C   0  0  0  0  0  0  0  0  0  0  0  0
   13.5390    3.5847    4.1733 C   0  0  0  0  0  0  0  0  0  0  0  0
   14.4783    2.5877    1.0195 C   0  0  0  0  0  0  0  0  0  0  0  0
   15.7490    3.2150    1.2200 C   0  0  0  0  0  0  0  0  0  0  0  0
   16.6913    2.3076    0.8682 C   0  0  0  0  0  0  0  0  0  0  0  0
   14.6403    1.3093    0.5342 N   0  0  0  0  0  0  0  0  0  0  0  0
   15.9938    1.1312    0.4542 C   0  0  0  0  0  0  0  0  0  0  0  0
   16.6438   -0.0427    0.0616 C   0  0  0  0  0  0  0  0  0  0  0  0
   15.9518   -1.1866   -0.3468 C   0  0  0  0  0  0  0  0  0  0  0  0
   16.6064   -2.3956   -0.7359 C   0  0  0  0  0  0  0  0  0  0  0  0
   15.6341   -3.2606   -1.1123 C   0  0  0  0  0  0  0  0  0  0  0  0
   14.3882   -2.5743   -0.9532 C   0  0  0  0  0  0  0  0  0  0  0  0
   14.5944   -1.3028   -0.4661 N   0  0  0  0  0  0  0  0  0  0  0  0
   13.1644   -3.1298   -1.2904 C   0  0  0  0  0  0  0  0  0  0  0  0
   13.1369   -4.5092   -1.8544 C   0  0  0  0  0  0  0  0  0  0  0  0
   13.2991   -4.7042   -3.2297 C   0  0  0  0  0  0  0  0  0  0  0  0
   13.5060   -3.5211   -4.1375 C   0  0  0  0  0  0  0  0  0  0  0  0
   13.2666   -5.9942   -3.7441 C   0  0  0  0  0  0  0  0  0  0  0  0
   13.0759   -7.0926   -2.9102 C   0  0  0  0  0  0  0  0  0  0  0  0
   13.0344   -8.4801   -3.4914 C   0  0  0  0  0  0  0  0  0  0  0  0
   12.9155   -6.8864   -1.5450 C   0  0  0  0  0  0  0  0  0  0  0  0
   12.9438   -5.6039   -1.0080 C   0  0  0  0  0  0  0  0  0  0  0  0
   12.7650   -5.3887    0.4713 C   0  0  0  0  0  0  0  0  0  0  0  0
   11.9612   -2.4609   -1.1242 C   0  0  0  0  0  0  0  0  0  0  0  0
   10.6895   -3.0228   -1.4727 C   0  0  0  0  0  0  0  0  0  0  0  0
    9.7508   -2.1137   -1.1194 C   0  0  0  0  0  0  0  0  0  0  0  0
   10.4506   -0.9978   -0.5585 C   0  0  0  0  0  0  0  0  0  0  0  0
   11.8063   -1.2117   -0.5778 N   0  0  0  0  0  0  0  0  0  0  0  0
    8.7369    0.1413   -0.0599 H   0  0  0  0  0  0  0  0  0  0  0  0
    8.7509    2.4575    1.0953 H   0  0  0  0  0  0  0  0  0  0  0  0
   10.6845    4.1852    1.8642 H   0  0  0  0  0  0  0  0  0  0  0  0
   12.1109    4.9447   -0.6819 H   0  0  0  0  0  0  0  0  0  0  0  0
   13.8656    4.8577   -0.8376 H   0  0  0  0  0  0  0  0  0  0  0  0
   13.0414    6.4201   -0.9926 H   0  0  0  0  0  0  0  0  0  0  0  0
   13.1169    7.8187    0.8911 H   0  0  0  0  0  0  0  0  0  0  0  0
   12.9521    8.5874    4.4956 H   0  0  0  0  0  0  0  0  0  0  0  0
   14.4023    8.9130    3.5401 H   0  0  0  0  0  0  0  0  0  0  0  0
   12.8083    9.2531    2.8573 H   0  0  0  0  0  0  0  0  0  0  0  0
   13.5363    6.2150    4.8370 H   0  0  0  0  0  0  0  0  0  0  0  0
   14.4420    3.0164    3.9423 H   0  0  0  0  0  0  0  0  0  0  0  0
   13.5830    3.9001    5.2153 H   0  0  0  0  0  0  0  0  0  0  0  0
   12.6838    2.9188    4.0438 H   0  0  0  0  0  0  0  0  0  0  0  0
   15.8852    4.2202    1.5847 H   0  0  0  0  0  0  0  0  0  0  0  0
   17.7644    2.4091    0.8849 H   0  0  0  0  0  0  0  0  0  0  0  0
   17.6739   -2.5454   -0.7190 H   0  0  0  0  0  0  0  0  0  0  0  0
   15.7342   -4.2732   -1.4683 H   0  0  0  0  0  0  0  0  0  0  0  0
   12.6899   -2.8057   -4.0211 H   0  0  0  0  0  0  0  0  0  0  0  0
   13.5521   -3.8340   -5.1802 H   0  0  0  0  0  0  0  0  0  0  0  0
   14.4367   -3.0092   -3.8854 H   0  0  0  0  0  0  0  0  0  0  0  0
   13.3916   -6.1472   -4.8111 H   0  0  0  0  0  0  0  0  0  0  0  0
   13.9020   -8.6529   -4.1302 H   0  0  0  0  0  0  0  0  0  0  0  0
   13.0234   -9.2338   -2.7042 H   0  0  0  0  0  0  0  0  0  0  0  0
   12.1376   -8.6047   -4.1019 H   0  0  0  0  0  0  0  0  0  0  0  0
   12.7664   -7.7359   -0.8866 H   0  0  0  0  0  0  0  0  0  0  0  0
   11.8490   -4.8261    0.6626 H   0  0  0  0  0  0  0  0  0  0  0  0
   13.5998   -4.8139    0.8762 H   0  0  0  0  0  0  0  0  0  0  0  0
   12.7052   -6.3402    0.9988 H   0  0  0  0  0  0  0  0  0  0  0  0
   10.5528   -3.9910   -1.9268 H   0  0  0  0  0  0  0  0  0  0  0  0
    8.6787   -2.1749   -1.2184 H   0  0  0  0  0  0  0  0  0  0  0  0
   31.8079   -0.0351   -0.0209 Ni  0  0  0  0  0  0  0  0  0  0  0  0
   35.2092   -0.0526   -0.1206 C   0  0  0  0  0  0  0  0  0  0  0  0
   34.5437   -1.2059   -0.4804 C   0  0  0  0  0  0  0  0  0  0  0  0
   35.2083   -2.4073   -0.8859 C   0  0  0  0  0  0  0  0  0  0  0  0
   34.2401   -3.2984   -1.2035 C   0  0  0  0  0  0  0  0  0  0  0  0
   32.9854   -2.6379   -0.9937 C   0  0  0  0  0  0  0  0  0  0  0  0
   33.1808   -1.3592   -0.5354 N   0  0  0  0  0  0  0  0  0  0  0  0
   31.7586   -3.2238   -1.2657 C   0  0  0  0  0  0  0  0  0  0  0  0
   31.7375   -4.6090   -1.8151 C   0  0  0  0  0  0  0  0  0  0  0  0
   31.8469   -4.8116   -3.1939 C   0  0  0  0  0  0  0  0  0  0  0  0
   31.9868   -3.6316   -4.1184 C   0  0  0  0  0  0  0  0  0  0  0  0
   31.8278   -6.1069   -3.6973 C   0  0  0  0  0  0  0  0  0  0  0  0
   31.7029   -7.2018   -2.8484 C   0  0  0  0  0  0  0  0  0  0  0  0
   31.6632   -8.5986   -3.4070 C   0  0  0  0  0  0  0  0  0  0  0  0
   31.5943   -6.9880   -1.4781 C   0  0  0  0  0  0  0  0  0  0  0  0
   31.6106   -5.7015   -0.9524 C   0  0  0  0  0  0  0  0  0  0  0  0
   31.4947   -5.4779    0.5319 C   0  0  0  0  0  0  0  0  0  0  0  0
   30.5517   -2.5758   -1.0576 C   0  0  0  0  0  0  0  0  0  0  0  0
   29.2812   -3.1670   -1.3480 C   0  0  0  0  0  0  0  0  0  0  0  0
   28.3389   -2.2675   -0.9766 C   0  0  0  0  0  0  0  0  0  0  0  0
   30.3897   -1.3165   -0.5247 N   0  0  0  0  0  0  0  0  0  0  0  0
   29.0363   -1.1317   -0.4615 C   0  0  0  0  0  0  0  0  0  0  0  0
   28.3858   -0.0122    0.0664 C   0  0  0  0  0  0  0  0  0  0  0  0
   29.0774    1.0952    0.5656 C   0  0  0  0  0  0  0  0  0  0  0  0
   28.4228    2.2364    1.1231 C   0  0  0  0  0  0  0  0  0  0  0  0
   29.3952    3.1199    1.4532 C   0  0  0  0  0  0  0  0  0  0  0  0
   30.6413    2.5145    1.0932 C   0  0  0  0  0  0  0  0  0  0  0  0
   30.4351    1.2608    0.5621 N   0  0  0  0  0  0  0  0  0  0  0  0
   31.8650    3.1488    1.2356 C   0  0  0  0  0  0  0  0  0  0  0  0
   31.8922    4.5340    1.7850 C   0  0  0  0  0  0  0  0  0  0  0  0
   31.7278    5.6275    0.9288 C   0  0  0  0  0  0  0  0  0  0  0  0
   31.5182    5.4036   -0.5451 C   0  0  0  0  0  0  0  0  0  0  0  0
   31.7604    6.9141    1.4517 C   0  0  0  0  0  0  0  0  0  0  0  0
   31.9533    7.1284    2.8137 C   0  0  0  0  0  0  0  0  0  0  0  0
   31.9951    8.5316    3.3560 C   0  0  0  0  0  0  0  0  0  0  0  0
   32.1153    6.0339    3.6550 C   0  0  0  0  0  0  0  0  0  0  0  0
   32.0869    4.7370    3.1536 C   0  0  0  0  0  0  0  0  0  0  0  0
   32.2666    3.5569    4.0710 C   0  0  0  0  0  0  0  0  0  0  0  0
   33.0682    2.5520    0.8906 C   0  0  0  0  0  0  0  0  0  0  0  0
   34.3397    3.1995    1.0267 C   0  0  0  0  0  0  0  0  0  0  0  0
   35.2783    2.3005    0.6481 C   0  0  0  0  0  0  0  0  0  0  0  0
   34.5787    1.1070    0.2800 C   0  0  0  0  0  0  0  0  0  0  0  0
   33.2232    1.2734    0.4174 N   0  0  0  0  0  0  0  0  0  0  0  0
   36.2925   -0.0583   -0.1537 H   0  0  0  0  0  0  0  0  0  0  0  0
   36.2791   -2.5311   -0.9186 H   0  0  0  0  0  0  0  0  0  0  0  0
   34.3455   -4.3133   -1.5515 H   0  0  0  0  0  0  0  0  0  0  0  0
   32.9198   -3.1017   -3.9159 H   0  0  0  0  0  0  0  0  0  0  0  0
   31.1651   -2.9296   -3.9662 H   0  0  0  0  0  0  0  0  0  0  0  0
   31.9872   -3.9511   -5.1601 H   0  0  0  0  0  0  0  0  0  0  0  0
   31.9130   -6.2643   -4.7676 H   0  0  0  0  0  0  0  0  0  0  0  0
   32.0784   -9.3133   -2.6961 H   0  0  0  0  0  0  0  0  0  0  0  0
   30.6297   -8.8868   -3.6135 H   0  0  0  0  0  0  0  0  0  0  0  0
   32.2250   -8.6605   -4.3393 H   0  0  0  0  0  0  0  0  0  0  0  0
   31.4974   -7.8365   -0.8086 H   0  0  0  0  0  0  0  0  0  0  0  0
   30.5906   -4.9098    0.7594 H   0  0  0  0  0  0  0  0  0  0  0  0
   31.4538   -6.4264    1.0664 H   0  0  0  0  0  0  0  0  0  0  0  0
   32.3490   -4.9053    0.8976 H   0  0  0  0  0  0  0  0  0  0  0  0
   29.1449   -4.1455   -1.7795 H   0  0  0  0  0  0  0  0  0  0  0  0
   27.2658   -2.3517   -1.0363 H   0  0  0  0  0  0  0  0  0  0  0  0
   27.3552    2.3333    1.2378 H   0  0  0  0  0  0  0  0  0  0  0  0
   29.2953    4.0962    1.8990 H   0  0  0  0  0  0  0  0  0  0  0  0
   32.3343    4.8086   -0.9589 H   0  0  0  0  0  0  0  0  0  0  0  0
   31.4692    6.3517   -1.0797 H   0  0  0  0  0  0  0  0  0  0  0  0
   30.5879    4.8582   -0.7161 H   0  0  0  0  0  0  0  0  0  0  0  0
   31.6337    7.7637    0.7886 H   0  0  0  0  0  0  0  0  0  0  0  0
   31.1278    9.0991    3.0149 H   0  0  0  0  0  0  0  0  0  0  0  0
   32.0060    8.5297    4.4458 H   0  0  0  0  0  0  0  0  0  0  0  0
   32.8922    9.0441    3.0023 H   0  0  0  0  0  0  0  0  0  0  0  0
   32.2659    6.1902    4.7182 H   0  0  0  0  0  0  0  0  0  0  0  0
   33.1821    3.0183    3.8182 H   0  0  0  0  0  0  0  0  0  0  0  0
   31.4315    2.8622    3.9656 H   0  0  0  0  0  0  0  0  0  0  0  0
   32.3276    3.8776    5.1105 H   0  0  0  0  0  0  0  0  0  0  0  0
   34.4765    4.2120    1.3711 H   0  0  0  0  0  0  0  0  0  0  0  0
   36.3503    2.4141    0.6167 H   0  0  0  0  0  0  0  0  0  0  0  0
   18.0480   -0.0692    0.0778 C   0  0  0  0  0  0  0  0  0  0  0  0
   19.2722   -0.0713    0.0940 C   0  0  0  0  0  0  0  0  0  0  0  0
   20.6153   -0.0712    0.1036 C   0  0  0  0  0  0  0  0  0  0  0  0
   21.8457   -0.0599    0.1146 C   0  0  0  0  0  0  0  0  0  0  0  0
   23.1839   -0.0402    0.1188 C   0  0  0  0  0  0  0  0  0  0  0  0
   24.4143   -0.0242    0.1161 C   0  0  0  0  0  0  0  0  0  0  0  0
   25.7574   -0.0145    0.1083 C   0  0  0  0  0  0  0  0  0  0  0  0
   26.9815   -0.0052    0.0942 C   0  0  0  0  0  0  0  0  0  0  0  0
  2  3  4  0  0  0  0
  3  4  4  0  0  0  0
  4  5  2  0  0  0  0
  5  6  4  0  0  0  0
  1  7  1  0  0  0  0
  3  7  4  0  0  0  0
  6  7  4  0  0  0  0
  6  8  4  0  0  0  0
  8  9  1  0  0  0  0
  9 10  4  0  0  0  0
 10 11  1  0  0  0  0
 10 12  4  0  0  0  0
 12 13  4  0  0  0  0
 13 14  1  0  0  0  0
 13 15  4  0  0  0  0
  9 16  4  0  0  0  0
 15 16  4  0  0  0  0
 16 17  1  0  0  0  0
  8 18  4  0  0  0  0
 18 19  4  0  0  0  0
 19 20  2  0  0  0  0
  1 21  1  0  0  0  0
 18 21  4  0  0  0  0
 20 22  4  0  0  0  0
 21 22  4  0  0  0  0
 22 23  4  0  0  0  0
 23 24  4  0  0  0  0
 24 25  4  0  0  0  0
 25 26  2  0  0  0  0
 26 27  4  0  0  0  0
  1 28  1  0  0  0  0
 24 28  4  0  0  0  0
 27 28  4  0  0  0  0
 27 29  4  0  0  0  0
 29 30  1  0  0  0  0
 30 31  4  0  0  0  0
 31 32  1  0  0  0  0
 31 33  4  0  0  0  0
 33 34  4  0  0  0  0
 34 35  1  0  0  0  0
 34 36  4  0  0  0  0
 30 37  4  0  0  0  0
 36 37  4  0  0  0  0
 37 38  1  0  0  0  0
 29 39  4  0  0  0  0
 39 40  4  0  0  0  0
 40 41  2  0  0  0  0
  2 42  4  0  0  0  0
 41 42  4  0  0  0  0
  1 43  1  0  0  0  0
 39 43  4  0  0  0  0
 42 43  4  0  0  0  0
  2 44  1  0  0  0  0
  4 45  1  0  0  0  0
  5 46  1  0  0  0  0
 11 47  1  0  0  0  0
 11 48  1  0  0  0  0
 11 49  1  0  0  0  0
 12 50  1  0  0  0  0
 14 51  1  0  0  0  0
 14 52  1  0  0  0  0
 14 53  1  0  0  0  0
 15 54  1  0  0  0  0
 17 55  1  0  0  0  0
 17 56  1  0  0  0  0
 17 57  1  0  0  0  0
 19 58  1  0  0  0  0
 20 59  1  0  0  0  0
 25 60  1  0  0  0  0
 26 61  1  0  0  0  0
 32 62  1  0  0  0  0
 32 63  1  0  0  0  0
 32 64  1  0  0  0  0
 33 65  1  0  0  0  0
 35 66  1  0  0  0  0
 35 67  1  0  0  0  0
 35 68  1  0  0  0  0
 36 69  1  0  0  0  0
 38 70  1  0  0  0  0
 38 71  1  0  0  0  0
 38 72  1  0  0  0  0
 40 73  1  0  0  0  0
 41 74  1  0  0  0  0
 76 77  4  0  0  0  0
 77 78  4  0  0  0  0
 78 79  2  0  0  0  0
 79 80  4  0  0  0  0
 75 81  1  0  0  0  0
 77 81  4  0  0  0  0
 80 81  4  0  0  0  0
 80 82  4  0  0  0  0
 82 83  1  0  0  0  0
 83 84  4  0  0  0  0
 84 85  1  0  0  0  0
 84 86  4  0  0  0  0
 86 87  4  0  0  0  0
 87 88  1  0  0  0  0
 87 89  4  0  0  0  0
 83 90  4  0  0  0  0
 89 90  4  0  0  0  0
 90 91  1  0  0  0  0
 82 92  4  0  0  0  0
 92 93  4  0  0  0  0
 93 94  2  0  0  0  0
 75 95  1  0  0  0  0
 92 95  4  0  0  0  0
 94 96  4  0  0  0  0
 95 96  4  0  0  0  0
 96 97  4  0  0  0  0
 97 98  4  0  0  0  0
 98 99  4  0  0  0  0
 99100  2  0  0  0  0
100101  4  0  0  0  0
 75102  1  0  0  0  0
 98102  4  0  0  0  0
101102  4  0  0  0  0
101103  4  0  0  0  0
103104  1  0  0  0  0
104105  4  0  0  0  0
105106  1  0  0  0  0
105107  4  0  0  0  0
107108  4  0  0  0  0
108109  1  0  0  0  0
108110  4  0  0  0  0
104111  4  0  0  0  0
110111  4  0  0  0  0
111112  1  0  0  0  0
103113  4  0  0  0  0
113114  4  0  0  0  0
114115  2  0  0  0  0
 76116  4  0  0  0  0
115116  4  0  0  0  0
 75117  1  0  0  0  0
113117  4  0  0  0  0
116117  4  0  0  0  0
 76118  1  0  0  0  0
 78119  1  0  0  0  0
 79120  1  0  0  0  0
 85121  1  0  0  0  0
 85122  1  0  0  0  0
 85123  1  0  0  0  0
 86124  1  0  0  0  0
 88125  1  0  0  0  0
 88126  1  0  0  0  0
 88127  1  0  0  0  0
 89128  1  0  0  0  0
 91129  1  0  0  0  0
 91130  1  0  0  0  0
 91131  1  0  0  0  0
 93132  1  0  0  0  0
 94133  1  0  0  0  0
 99134  1  0  0  0  0
100135  1  0  0  0  0
106136  1  0  0  0  0
106137  1  0  0  0  0
106138  1  0  0  0  0
107139  1  0  0  0  0
109140  1  0  0  0  0
109141  1  0  0  0  0
109142  1  0  0  0  0
110143  1  0  0  0  0
112144  1  0  0  0  0
112145  1  0  0  0  0
112146  1  0  0  0  0
114147  1  0  0  0  0
115148  1  0  0  0  0
 23149  4  0  0  0  0
149150  3  0  0  0  0
150151  4  0  0  0  0
151152  3  0  0  0  0
152153  4  0  0  0  0
153154  3  0  0  0  0
154155  4  0  0  0  0
 97156  4  0  0  0  0
155156  3  0  0  0  0
M  END
