 xtb: 6.5.1 (b24c23e)
          07302209543D

258297  0     0  0            999 V2000
   53.9219   -0.0195    0.0067 Cu  0  0  0  0  0  0  0  0  0  0  0  0
   50.5151   -0.0646    0.0132 C   0  0  0  0  0  0  0  0  0  0  0  0
   51.1426   -0.1109    1.2487 C   0  0  0  0  0  0  0  0  0  0  0  0
   50.4593   -0.1430    2.5102 C   0  0  0  0  0  0  0  0  0  0  0  0
   51.4117   -0.1716    3.4746 C   0  0  0  0  0  0  0  0  0  0  0  0
   52.6870   -0.1657    2.8097 C   0  0  0  0  0  0  0  0  0  0  0  0
   52.4923   -0.1201    1.4593 N   0  0  0  0  0  0  0  0  0  0  0  0
   53.9275   -0.1722    3.4512 C   0  0  0  0  0  0  0  0  0  0  0  0
   55.1653   -0.1205    2.8067 C   0  0  0  0  0  0  0  0  0  0  0  0
   56.4386   -0.1742    3.4680 C   0  0  0  0  0  0  0  0  0  0  0  0
   57.3910   -0.1163    2.5034 C   0  0  0  0  0  0  0  0  0  0  0  0
   55.3619   -0.0441    1.4538 N   0  0  0  0  0  0  0  0  0  0  0  0
   56.7082   -0.0352    1.2467 C   0  0  0  0  0  0  0  0  0  0  0  0
   57.3509    0.0302    0.0001 C   0  0  0  0  0  0  0  0  0  0  0  0
   56.7019    0.0802   -1.2440 C   0  0  0  0  0  0  0  0  0  0  0  0
   57.3784    0.1153   -2.5062 C   0  0  0  0  0  0  0  0  0  0  0  0
   56.4213    0.1401   -3.4675 C   0  0  0  0  0  0  0  0  0  0  0  0
   55.1513    0.1286   -2.7979 C   0  0  0  0  0  0  0  0  0  0  0  0
   53.9103    0.1267   -3.4382 C   0  0  0  0  0  0  0  0  0  0  0  0
   53.9020    0.1854   -4.9205 C   0  0  0  0  0  0  0  0  0  0  0  0
   53.3706   -0.8711   -5.6649 C   0  0  0  0  0  0  0  0  0  0  0  0
   53.3574   -0.8145   -7.0463 C   0  0  0  0  0  0  0  0  0  0  0  0
   53.8708    0.3017   -7.7096 C   0  0  0  0  0  0  0  0  0  0  0  0
   53.8279    0.3188   -9.1911 C   0  0  0  0  0  0  0  0  0  0  0  0
   54.3485    1.4314   -9.7310 O   0  0  0  0  0  0  0  0  0  0  0  0
   53.3735   -0.5676   -9.8690 O   0  0  0  0  0  0  0  0  0  0  0  0
   54.4021    1.3594   -6.9709 C   0  0  0  0  0  0  0  0  0  0  0  0
   54.4189    1.2982   -5.5883 C   0  0  0  0  0  0  0  0  0  0  0  0
   52.6731    0.0728   -2.7923 C   0  0  0  0  0  0  0  0  0  0  0  0
   51.3946    0.1193   -3.4492 C   0  0  0  0  0  0  0  0  0  0  0  0
   50.4470    0.0648   -2.4812 C   0  0  0  0  0  0  0  0  0  0  0  0
   51.1365   -0.0075   -1.2248 C   0  0  0  0  0  0  0  0  0  0  0  0
   52.4852    0.0037   -1.4420 N   0  0  0  0  0  0  0  0  0  0  0  0
   55.3546    0.0852   -1.4445 N   0  0  0  0  0  0  0  0  0  0  0  0
   53.9278   -0.2407    4.9331 C   0  0  0  0  0  0  0  0  0  0  0  0
   53.3940   -1.3537    5.5879 C   0  0  0  0  0  0  0  0  0  0  0  0
   53.3908   -1.4161    6.9691 C   0  0  0  0  0  0  0  0  0  0  0  0
   53.9168   -0.3645    7.7220 C   0  0  0  0  0  0  0  0  0  0  0  0
   53.8852   -0.4752    9.1999 C   0  0  0  0  0  0  0  0  0  0  0  0
   54.4178    0.5832    9.8294 O   0  0  0  0  0  0  0  0  0  0  0  0
   53.4300   -1.4143    9.8021 O   0  0  0  0  0  0  0  0  0  0  0  0
   54.4501    0.7496    7.0731 C   0  0  0  0  0  0  0  0  0  0  0  0
   54.4566    0.8075    5.6903 C   0  0  0  0  0  0  0  0  0  0  0  0
   49.4300   -0.0653    0.0158 H   0  0  0  0  0  0  0  0  0  0  0  0
   49.3872   -0.1373    2.6280 H   0  0  0  0  0  0  0  0  0  0  0  0
   51.2708   -0.1832    4.5433 H   0  0  0  0  0  0  0  0  0  0  0  0
   56.5812   -0.2589    4.5332 H   0  0  0  0  0  0  0  0  0  0  0  0
   58.4626   -0.1331    2.6214 H   0  0  0  0  0  0  0  0  0  0  0  0
   58.4495    0.1137   -2.6304 H   0  0  0  0  0  0  0  0  0  0  0  0
   56.5586    0.1520   -4.5367 H   0  0  0  0  0  0  0  0  0  0  0  0
   52.9812   -1.7430   -5.1518 H   0  0  0  0  0  0  0  0  0  0  0  0
   52.9503   -1.6327   -7.6303 H   0  0  0  0  0  0  0  0  0  0  0  0
   54.2810    1.3643  -10.6973 H   0  0  0  0  0  0  0  0  0  0  0  0
   54.7987    2.2290   -7.4815 H   0  0  0  0  0  0  0  0  0  0  0  0
   54.8199    2.1258   -5.0141 H   0  0  0  0  0  0  0  0  0  0  0  0
   51.2482    0.1970   -4.5145 H   0  0  0  0  0  0  0  0  0  0  0  0
   49.3743    0.0779   -2.5930 H   0  0  0  0  0  0  0  0  0  0  0  0
   52.9951   -2.1760    5.0048 H   0  0  0  0  0  0  0  0  0  0  0  0
   52.9824   -2.2790    7.4836 H   0  0  0  0  0  0  0  0  0  0  0  0
   54.3581    0.4336   10.7869 H   0  0  0  0  0  0  0  0  0  0  0  0
   54.8560    1.5697    7.6535 H   0  0  0  0  0  0  0  0  0  0  0  0
   54.8592    1.6790    5.1864 H   0  0  0  0  0  0  0  0  0  0  0  0
   94.3659   -0.0012   -0.0549 Cu  0  0  0  0  0  0  0  0  0  0  0  0
   97.7726   -0.0442   -0.0729 C   0  0  0  0  0  0  0  0  0  0  0  0
   97.1428    0.0538   -1.3041 C   0  0  0  0  0  0  0  0  0  0  0  0
   97.8238    0.1671   -2.5622 C   0  0  0  0  0  0  0  0  0  0  0  0
   96.8696    0.2527   -3.5215 C   0  0  0  0  0  0  0  0  0  0  0  0
   95.5956    0.1851   -2.8577 C   0  0  0  0  0  0  0  0  0  0  0  0
   95.7927    0.0717   -1.5117 N   0  0  0  0  0  0  0  0  0  0  0  0
   94.3540    0.2616   -3.4928 C   0  0  0  0  0  0  0  0  0  0  0  0
   93.1175    0.2445   -2.8442 C   0  0  0  0  0  0  0  0  0  0  0  0
   91.8429    0.2810   -3.5043 C   0  0  0  0  0  0  0  0  0  0  0  0
   90.8923    0.2249   -2.5378 C   0  0  0  0  0  0  0  0  0  0  0  0
   92.9233    0.1550   -1.4918 N   0  0  0  0  0  0  0  0  0  0  0  0
   91.5774    0.1449   -1.2823 C   0  0  0  0  0  0  0  0  0  0  0  0
   90.9370    0.0499   -0.0364 C   0  0  0  0  0  0  0  0  0  0  0  0
   91.5883   -0.0618    1.2026 C   0  0  0  0  0  0  0  0  0  0  0  0
   90.9139   -0.1879    2.4601 C   0  0  0  0  0  0  0  0  0  0  0  0
   91.8726   -0.2804    3.4156 C   0  0  0  0  0  0  0  0  0  0  0  0
   93.1415   -0.2029    2.7481 C   0  0  0  0  0  0  0  0  0  0  0  0
   94.3836   -0.2767    3.3820 C   0  0  0  0  0  0  0  0  0  0  0  0
   94.3935   -0.3974    4.8605 C   0  0  0  0  0  0  0  0  0  0  0  0
   94.9345   -1.5314    5.4722 C   0  0  0  0  0  0  0  0  0  0  0  0
   94.9484   -1.6417    6.8503 C   0  0  0  0  0  0  0  0  0  0  0  0
   94.4260   -0.6180    7.6432 C   0  0  0  0  0  0  0  0  0  0  0  0
   94.4710   -0.7788    9.1162 C   0  0  0  0  0  0  0  0  0  0  0  0
   93.9429    0.2568    9.7860 O   0  0  0  0  0  0  0  0  0  0  0  0
   94.9327   -1.7371    9.6821 O   0  0  0  0  0  0  0  0  0  0  0  0
   93.8848    0.5164    7.0374 C   0  0  0  0  0  0  0  0  0  0  0  0
   93.8676    0.6222    5.6576 C   0  0  0  0  0  0  0  0  0  0  0  0
   95.6198   -0.2460    2.7328 C   0  0  0  0  0  0  0  0  0  0  0  0
   96.8995   -0.2739    3.3885 C   0  0  0  0  0  0  0  0  0  0  0  0
   97.8454   -0.2095    2.4194 C   0  0  0  0  0  0  0  0  0  0  0  0
   97.1536   -0.1336    1.1644 C   0  0  0  0  0  0  0  0  0  0  0  0
   95.8054   -0.1520    1.3837 N   0  0  0  0  0  0  0  0  0  0  0  0
   92.9359   -0.0785    1.4001 N   0  0  0  0  0  0  0  0  0  0  0  0
   94.3518    0.3673   -4.9726 C   0  0  0  0  0  0  0  0  0  0  0  0
   94.8741   -0.6670   -5.7535 C   0  0  0  0  0  0  0  0  0  0  0  0
   94.8756   -0.5683   -7.1326 C   0  0  0  0  0  0  0  0  0  0  0  0
   94.3597    0.5691   -7.7569 C   0  0  0  0  0  0  0  0  0  0  0  0
   94.3895    0.6313   -9.2376 C   0  0  0  0  0  0  0  0  0  0  0  0
   93.8692    1.7621   -9.7384 O   0  0  0  0  0  0  0  0  0  0  0  0
   94.8335   -0.2360   -9.9463 O   0  0  0  0  0  0  0  0  0  0  0  0
   93.8381    1.6052   -6.9816 C   0  0  0  0  0  0  0  0  0  0  0  0
   93.8328    1.5016   -5.6014 C   0  0  0  0  0  0  0  0  0  0  0  0
   98.8577   -0.0437   -0.0776 H   0  0  0  0  0  0  0  0  0  0  0  0
   98.8957    0.1839   -2.6808 H   0  0  0  0  0  0  0  0  0  0  0  0
   97.0086    0.3647   -4.5847 H   0  0  0  0  0  0  0  0  0  0  0  0
   91.6982    0.3299   -4.5714 H   0  0  0  0  0  0  0  0  0  0  0  0
   89.8204    0.2292   -2.6545 H   0  0  0  0  0  0  0  0  0  0  0  0
   89.8430   -0.2085    2.5846 H   0  0  0  0  0  0  0  0  0  0  0  0
   91.7370   -0.4030    4.4779 H   0  0  0  0  0  0  0  0  0  0  0  0
   95.3306   -2.3319    4.8578 H   0  0  0  0  0  0  0  0  0  0  0  0
   95.3630   -2.5207    7.3315 H   0  0  0  0  0  0  0  0  0  0  0  0
   94.0117    0.0748   10.7373 H   0  0  0  0  0  0  0  0  0  0  0  0
   93.4810    1.3144    7.6491 H   0  0  0  0  0  0  0  0  0  0  0  0
   93.4590    1.5096    5.1873 H   0  0  0  0  0  0  0  0  0  0  0  0
   97.0478   -0.3235    4.4552 H   0  0  0  0  0  0  0  0  0  0  0  0
   98.9183   -0.2065    2.5302 H   0  0  0  0  0  0  0  0  0  0  0  0
   95.2655   -1.5553   -5.2708 H   0  0  0  0  0  0  0  0  0  0  0  0
   95.2751   -1.3693   -7.7449 H   0  0  0  0  0  0  0  0  0  0  0  0
   93.9278    1.7248  -10.7069 H   0  0  0  0  0  0  0  0  0  0  0  0
   93.4397    2.4912   -7.4618 H   0  0  0  0  0  0  0  0  0  0  0  0
   93.4390    2.3122   -4.9987 H   0  0  0  0  0  0  0  0  0  0  0  0
   59.9825    0.0392   -0.0069 C   0  0  0  0  0  0  0  0  0  0  0  0
   58.7618    0.0336   -0.0037 C   0  0  0  0  0  0  0  0  0  0  0  0
   61.3359    0.0392   -0.0121 C   0  0  0  0  0  0  0  0  0  0  0  0
   62.5567    0.0389   -0.0149 C   0  0  0  0  0  0  0  0  0  0  0  0
   73.4691    0.0213   -0.0232 C   0  0  0  0  0  0  0  0  0  0  0  0
   72.2471    0.0156   -0.0415 C   0  0  0  0  0  0  0  0  0  0  0  0
   74.8192    0.0230   -0.0063 C   0  0  0  0  0  0  0  0  0  0  0  0
   76.0413    0.0255    0.0110 C   0  0  0  0  0  0  0  0  0  0  0  0
   86.9523    0.0588   -0.0113 C   0  0  0  0  0  0  0  0  0  0  0  0
   85.7315    0.0604   -0.0044 C   0  0  0  0  0  0  0  0  0  0  0  0
   88.3056    0.0584   -0.0219 C   0  0  0  0  0  0  0  0  0  0  0  0
   89.5262    0.0543   -0.0287 C   0  0  0  0  0  0  0  0  0  0  0  0
   67.4034    0.0266   -0.0413 Cu  0  0  0  0  0  0  0  0  0  0  0  0
   63.9669    0.0355   -0.0229 C   0  0  0  0  0  0  0  0  0  0  0  0
   64.6107   -1.2127    0.0013 C   0  0  0  0  0  0  0  0  0  0  0  0
   63.9303   -2.4731   -0.0119 C   0  0  0  0  0  0  0  0  0  0  0  0
   64.8843   -3.4373    0.0273 C   0  0  0  0  0  0  0  0  0  0  0  0
   66.1548   -2.7703    0.0740 C   0  0  0  0  0  0  0  0  0  0  0  0
   65.9560   -1.4166    0.0487 N   0  0  0  0  0  0  0  0  0  0  0  0
   67.3945   -3.4126    0.1164 C   0  0  0  0  0  0  0  0  0  0  0  0
   68.6371   -2.7760    0.0999 C   0  0  0  0  0  0  0  0  0  0  0  0
   69.9041   -3.4419    0.2091 C   0  0  0  0  0  0  0  0  0  0  0  0
   70.8628   -2.4822    0.1646 C   0  0  0  0  0  0  0  0  0  0  0  0
   68.8434   -1.4257    0.0025 N   0  0  0  0  0  0  0  0  0  0  0  0
   70.1887   -1.2252    0.0358 C   0  0  0  0  0  0  0  0  0  0  0  0
   70.8408    0.0180   -0.0494 C   0  0  0  0  0  0  0  0  0  0  0  0
   70.1946    1.2641   -0.1390 C   0  0  0  0  0  0  0  0  0  0  0  0
   70.8741    2.5170   -0.2780 C   0  0  0  0  0  0  0  0  0  0  0  0
   69.9200    3.4814   -0.3206 C   0  0  0  0  0  0  0  0  0  0  0  0
   68.6504    2.8226   -0.1980 C   0  0  0  0  0  0  0  0  0  0  0  0
   67.4110    3.4662   -0.1993 C   0  0  0  0  0  0  0  0  0  0  0  0
   67.4129    4.9481   -0.2612 C   0  0  0  0  0  0  0  0  0  0  0  0
   68.0083    5.6973    0.7571 C   0  0  0  0  0  0  0  0  0  0  0  0
   68.0024    7.0788    0.7022 C   0  0  0  0  0  0  0  0  0  0  0  0
   67.4055    7.7377   -0.3743 C   0  0  0  0  0  0  0  0  0  0  0  0
   67.4246    9.2198   -0.3883 C   0  0  0  0  0  0  0  0  0  0  0  0
   66.8176    9.7549   -1.4588 O   0  0  0  0  0  0  0  0  0  0  0  0
   67.9293    9.9020    0.4669 O   0  0  0  0  0  0  0  0  0  0  0  0
   66.8132    6.9944   -1.3958 C   0  0  0  0  0  0  0  0  0  0  0  0
   66.8161    5.6118   -1.3362 C   0  0  0  0  0  0  0  0  0  0  0  0
   66.1685    2.8302   -0.1421 C   0  0  0  0  0  0  0  0  0  0  0  0
   64.9021    3.5033   -0.0753 C   0  0  0  0  0  0  0  0  0  0  0  0
   63.9437    2.5438   -0.0270 C   0  0  0  0  0  0  0  0  0  0  0  0
   64.6173    1.2800   -0.0536 C   0  0  0  0  0  0  0  0  0  0  0  0
   65.9630    1.4773   -0.1185 N   0  0  0  0  0  0  0  0  0  0  0  0
   68.8505    1.4716   -0.0992 N   0  0  0  0  0  0  0  0  0  0  0  0
   67.3890   -4.8945    0.1865 C   0  0  0  0  0  0  0  0  0  0  0  0
   66.8170   -5.5476    1.2814 C   0  0  0  0  0  0  0  0  0  0  0  0
   66.8131   -6.9288    1.3462 C   0  0  0  0  0  0  0  0  0  0  0  0
   67.3756   -7.6830    0.3146 C   0  0  0  0  0  0  0  0  0  0  0  0
   67.3432   -9.1608    0.4274 C   0  0  0  0  0  0  0  0  0  0  0  0
   67.9082   -9.7914   -0.6134 O   0  0  0  0  0  0  0  0  0  0  0  0
   66.8612   -9.7618    1.3536 O   0  0  0  0  0  0  0  0  0  0  0  0
   67.9458   -7.0357   -0.7820 C   0  0  0  0  0  0  0  0  0  0  0  0
   67.9541   -5.6530   -0.8416 C   0  0  0  0  0  0  0  0  0  0  0  0
   62.8597   -2.5943   -0.0546 H   0  0  0  0  0  0  0  0  0  0  0  0
   64.7444   -4.5061    0.0127 H   0  0  0  0  0  0  0  0  0  0  0  0
   70.0386   -4.5056    0.3205 H   0  0  0  0  0  0  0  0  0  0  0  0
   71.9327   -2.6042    0.2205 H   0  0  0  0  0  0  0  0  0  0  0  0
   71.9441    2.6335   -0.3427 H   0  0  0  0  0  0  0  0  0  0  0  0
   70.0594    4.5437   -0.4388 H   0  0  0  0  0  0  0  0  0  0  0  0
   68.4607    5.1878    1.6003 H   0  0  0  0  0  0  0  0  0  0  0  0
   68.4573    7.6664    1.4922 H   0  0  0  0  0  0  0  0  0  0  0  0
   66.8734   10.7219   -1.3919 H   0  0  0  0  0  0  0  0  0  0  0  0
   66.3522    7.5015   -2.2352 H   0  0  0  0  0  0  0  0  0  0  0  0
   66.3659    5.0342   -2.1357 H   0  0  0  0  0  0  0  0  0  0  0  0
   64.7674    4.5726   -0.0531 H   0  0  0  0  0  0  0  0  0  0  0  0
   62.8745    2.6703    0.0311 H   0  0  0  0  0  0  0  0  0  0  0  0
   66.3895   -4.9633    2.0883 H   0  0  0  0  0  0  0  0  0  0  0  0
   66.3760   -7.4421    2.1955 H   0  0  0  0  0  0  0  0  0  0  0  0
   67.8468  -10.7486   -0.4629 H   0  0  0  0  0  0  0  0  0  0  0  0
   68.3803   -7.6172   -1.5865 H   0  0  0  0  0  0  0  0  0  0  0  0
   68.3869   -5.1500   -1.6990 H   0  0  0  0  0  0  0  0  0  0  0  0
   80.8848    0.0436    0.0185 Cu  0  0  0  0  0  0  0  0  0  0  0  0
   77.4476    0.0304    0.0206 C   0  0  0  0  0  0  0  0  0  0  0  0
   78.1013   -1.2144    0.0535 C   0  0  0  0  0  0  0  0  0  0  0  0
   77.4294   -2.4791    0.0399 C   0  0  0  0  0  0  0  0  0  0  0  0
   78.3895   -3.4373    0.0871 C   0  0  0  0  0  0  0  0  0  0  0  0
   79.6552   -2.7620    0.1384 C   0  0  0  0  0  0  0  0  0  0  0  0
   79.4469   -1.4088    0.1088 N   0  0  0  0  0  0  0  0  0  0  0  0
   80.8989   -3.3949    0.1876 C   0  0  0  0  0  0  0  0  0  0  0  0
   82.1373   -2.7488    0.1793 C   0  0  0  0  0  0  0  0  0  0  0  0
   83.4081   -3.4059    0.2998 C   0  0  0  0  0  0  0  0  0  0  0  0
   84.3608   -2.4407    0.2512 C   0  0  0  0  0  0  0  0  0  0  0  0
   82.3344   -1.3987    0.0745 N   0  0  0  0  0  0  0  0  0  0  0  0
   83.6792   -1.1889    0.1092 C   0  0  0  0  0  0  0  0  0  0  0  0
   84.3214    0.0560    0.0050 C   0  0  0  0  0  0  0  0  0  0  0  0
   83.6692    1.2960   -0.0939 C   0  0  0  0  0  0  0  0  0  0  0  0
   84.3410    2.5517   -0.2467 C   0  0  0  0  0  0  0  0  0  0  0  0
   83.3812    3.5100   -0.2929 C   0  0  0  0  0  0  0  0  0  0  0  0
   82.1158    2.8450   -0.1586 C   0  0  0  0  0  0  0  0  0  0  0  0
   80.8724    3.4819   -0.1621 C   0  0  0  0  0  0  0  0  0  0  0  0
   80.8696    4.9628   -0.2440 C   0  0  0  0  0  0  0  0  0  0  0  0
   81.4665    5.7281    0.7616 C   0  0  0  0  0  0  0  0  0  0  0  0
   81.4679    7.1083    0.6805 C   0  0  0  0  0  0  0  0  0  0  0  0
   80.8770    7.7497   -0.4098 C   0  0  0  0  0  0  0  0  0  0  0  0
   80.9109    9.2310   -0.4559 C   0  0  0  0  0  0  0  0  0  0  0  0
   80.3145    9.7483   -1.5408 O   0  0  0  0  0  0  0  0  0  0  0  0
   81.4194    9.9264    0.3863 O   0  0  0  0  0  0  0  0  0  0  0  0
   80.2796    6.9904   -1.4164 C   0  0  0  0  0  0  0  0  0  0  0  0
   80.2749    5.6091   -1.3305 C   0  0  0  0  0  0  0  0  0  0  0  0
   79.6340    2.8395   -0.0994 C   0  0  0  0  0  0  0  0  0  0  0  0
   78.3636    3.5052   -0.0409 C   0  0  0  0  0  0  0  0  0  0  0  0
   77.4108    2.5398    0.0096 C   0  0  0  0  0  0  0  0  0  0  0  0
   78.0921    1.2803   -0.0080 C   0  0  0  0  0  0  0  0  0  0  0  0
   79.4360    1.4849   -0.0675 N   0  0  0  0  0  0  0  0  0  0  0  0
   82.3233    1.4967   -0.0487 N   0  0  0  0  0  0  0  0  0  0  0  0
   80.9079   -4.8772    0.2482 C   0  0  0  0  0  0  0  0  0  0  0  0
   80.3380   -5.5470    1.3338 C   0  0  0  0  0  0  0  0  0  0  0  0
   80.3522   -6.9287    1.3866 C   0  0  0  0  0  0  0  0  0  0  0  0
   80.9307   -7.6666    0.3521 C   0  0  0  0  0  0  0  0  0  0  0  0
   80.9183   -9.1456    0.4520 C   0  0  0  0  0  0  0  0  0  0  0  0
   81.4999   -9.7590   -0.5899 O   0  0  0  0  0  0  0  0  0  0  0  0
   80.4385   -9.7616    1.3696 O   0  0  0  0  0  0  0  0  0  0  0  0
   81.4984   -7.0025   -0.7357 C   0  0  0  0  0  0  0  0  0  0  0  0
   81.4887   -5.6195   -0.7832 C   0  0  0  0  0  0  0  0  0  0  0  0
   76.3598   -2.6076   -0.0071 H   0  0  0  0  0  0  0  0  0  0  0  0
   78.2567   -4.5069    0.0749 H   0  0  0  0  0  0  0  0  0  0  0  0
   83.5488   -4.4678    0.4204 H   0  0  0  0  0  0  0  0  0  0  0  0
   85.4312   -2.5553    0.3133 H   0  0  0  0  0  0  0  0  0  0  0  0
   85.4100    2.6734   -0.3173 H   0  0  0  0  0  0  0  0  0  0  0  0
   83.5143    4.5721   -0.4203 H   0  0  0  0  0  0  0  0  0  0  0  0
   81.9162    5.2322    1.6142 H   0  0  0  0  0  0  0  0  0  0  0  0
   81.9259    7.7083    1.4593 H   0  0  0  0  0  0  0  0  0  0  0  0
   80.3792   10.7161   -1.4948 H   0  0  0  0  0  0  0  0  0  0  0  0
   79.8223    7.4838   -2.2658 H   0  0  0  0  0  0  0  0  0  0  0  0
   79.8225    5.0188   -2.1194 H   0  0  0  0  0  0  0  0  0  0  0  0
   78.2227    4.5738   -0.0255 H   0  0  0  0  0  0  0  0  0  0  0  0
   76.3406    2.6603    0.0629 H   0  0  0  0  0  0  0  0  0  0  0  0
   79.8986   -4.9754    2.1434 H   0  0  0  0  0  0  0  0  0  0  0  0
   79.9173   -7.4551    2.2291 H   0  0  0  0  0  0  0  0  0  0  0  0
   81.4504  -10.7183   -0.4485 H   0  0  0  0  0  0  0  0  0  0  0  0
   81.9454   -7.5712   -1.5425 H   0  0  0  0  0  0  0  0  0  0  0  0
   81.9204   -5.1033   -1.6333 H   0  0  0  0  0  0  0  0  0  0  0  0
  2  3  4  0  0  0  0
  3  4  1  0  0  0  0
  4  5  2  0  0  0  0
  5  6  4  0  0  0  0
  1  7  1  0  0  0  0
  3  7  4  0  0  0  0
  6  7  4  0  0  0  0
  6  8  4  0  0  0  0
  8  9  4  0  0  0  0
  9 10  4  0  0  0  0
 10 11  2  0  0  0  0
  1 12  1  0  0  0  0
  9 12  4  0  0  0  0
 11 13  4  0  0  0  0
 12 13  4  0  0  0  0
 13 14  4  0  0  0  0
 14 15  4  0  0  0  0
 15 16  4  0  0  0  0
 16 17  2  0  0  0  0
 17 18  4  0  0  0  0
 18 19  4  0  0  0  0
 19 20  1  0  0  0  0
 20 21  4  0  0  0  0
 21 22  4  0  0  0  0
 22 23  4  0  0  0  0
 23 24  1  0  0  0  0
 24 25  4  0  0  0  0
 24 26  2  0  0  0  0
 23 27  4  0  0  0  0
 20 28  4  0  0  0  0
 27 28  4  0  0  0  0
 19 29  4  0  0  0  0
 29 30  4  0  0  0  0
 30 31  2  0  0  0  0
  2 32  4  0  0  0  0
 31 32  1  0  0  0  0
  1 33  1  0  0  0  0
 29 33  4  0  0  0  0
 32 33  4  0  0  0  0
  1 34  1  0  0  0  0
 15 34  4  0  0  0  0
 18 34  4  0  0  0  0
  8 35  1  0  0  0  0
 35 36  4  0  0  0  0
 36 37  4  0  0  0  0
 37 38  4  0  0  0  0
 38 39  1  0  0  0  0
 39 40  4  0  0  0  0
 39 41  2  0  0  0  0
 38 42  4  0  0  0  0
 35 43  4  0  0  0  0
 42 43  4  0  0  0  0
  2 44  1  0  0  0  0
  4 45  1  0  0  0  0
  5 46  1  0  0  0  0
 10 47  1  0  0  0  0
 11 48  1  0  0  0  0
 16 49  1  0  0  0  0
 17 50  1  0  0  0  0
 21 51  1  0  0  0  0
 22 52  1  0  0  0  0
 25 53  1  0  0  0  0
 27 54  1  0  0  0  0
 28 55  1  0  0  0  0
 30 56  1  0  0  0  0
 31 57  1  0  0  0  0
 36 58  1  0  0  0  0
 37 59  1  0  0  0  0
 40 60  1  0  0  0  0
 42 61  1  0  0  0  0
 43 62  1  0  0  0  0
 64 65  4  0  0  0  0
 65 66  1  0  0  0  0
 66 67  2  0  0  0  0
 67 68  4  0  0  0  0
 63 69  1  0  0  0  0
 65 69  4  0  0  0  0
 68 69  4  0  0  0  0
 68 70  4  0  0  0  0
 70 71  4  0  0  0  0
 71 72  4  0  0  0  0
 72 73  2  0  0  0  0
 63 74  1  0  0  0  0
 71 74  4  0  0  0  0
 73 75  4  0  0  0  0
 74 75  4  0  0  0  0
 75 76  4  0  0  0  0
 76 77  4  0  0  0  0
 77 78  4  0  0  0  0
 78 79  2  0  0  0  0
 79 80  4  0  0  0  0
 80 81  4  0  0  0  0
 81 82  1  0  0  0  0
 82 83  4  0  0  0  0
 83 84  4  0  0  0  0
 84 85  4  0  0  0  0
 85 86  1  0  0  0  0
 86 87  4  0  0  0  0
 86 88  2  0  0  0  0
 85 89  4  0  0  0  0
 82 90  4  0  0  0  0
 89 90  4  0  0  0  0
 81 91  4  0  0  0  0
 91 92  4  0  0  0  0
 92 93  2  0  0  0  0
 64 94  4  0  0  0  0
 93 94  1  0  0  0  0
 63 95  1  0  0  0  0
 91 95  4  0  0  0  0
 94 95  4  0  0  0  0
 63 96  1  0  0  0  0
 77 96  4  0  0  0  0
 80 96  4  0  0  0  0
 70 97  1  0  0  0  0
 97 98  4  0  0  0  0
 98 99  4  0  0  0  0
 99100  4  0  0  0  0
100101  1  0  0  0  0
101102  4  0  0  0  0
101103  2  0  0  0  0
100104  4  0  0  0  0
 97105  4  0  0  0  0
104105  4  0  0  0  0
 64106  1  0  0  0  0
 66107  1  0  0  0  0
 67108  1  0  0  0  0
 72109  1  0  0  0  0
 73110  1  0  0  0  0
 78111  1  0  0  0  0
 79112  1  0  0  0  0
 83113  1  0  0  0  0
 84114  1  0  0  0  0
 87115  1  0  0  0  0
 89116  1  0  0  0  0
 90117  1  0  0  0  0
 92118  1  0  0  0  0
 93119  1  0  0  0  0
 98120  1  0  0  0  0
 99121  1  0  0  0  0
102122  1  0  0  0  0
104123  1  0  0  0  0
105124  1  0  0  0  0
 14126  1  0  0  0  0
125126  3  0  0  0  0
125127  4  0  0  0  0
127128  3  0  0  0  0
129130  3  0  0  0  0
129131  4  0  0  0  0
131132  3  0  0  0  0
133134  3  0  0  0  0
133135  4  0  0  0  0
 76136  1  0  0  0  0
135136  3  0  0  0  0
128138  1  0  0  0  0
138139  4  0  0  0  0
139140  4  0  0  0  0
140141  2  0  0  0  0
141142  4  0  0  0  0
137143  1  0  0  0  0
139143  4  0  0  0  0
142143  4  0  0  0  0
142144  4  0  0  0  0
144145  4  0  0  0  0
145146  4  0  0  0  0
146147  2  0  0  0  0
137148  1  0  0  0  0
145148  4  0  0  0  0
147149  4  0  0  0  0
148149  4  0  0  0  0
130150  4  0  0  0  0
149150  4  0  0  0  0
150151  4  0  0  0  0
151152  4  0  0  0  0
152153  2  0  0  0  0
153154  4  0  0  0  0
154155  4  0  0  0  0
155156  1  0  0  0  0
156157  4  0  0  0  0
157158  4  0  0  0  0
158159  4  0  0  0  0
159160  1  0  0  0  0
160161  4  0  0  0  0
160162  2  0  0  0  0
159163  4  0  0  0  0
156164  4  0  0  0  0
163164  4  0  0  0  0
155165  4  0  0  0  0
165166  4  0  0  0  0
166167  2  0  0  0  0
138168  4  0  0  0  0
167168  4  0  0  0  0
137169  1  0  0  0  0
165169  4  0  0  0  0
168169  4  0  0  0  0
137170  1  0  0  0  0
151170  4  0  0  0  0
154170  4  0  0  0  0
144171  1  0  0  0  0
171172  4  0  0  0  0
172173  4  0  0  0  0
173174  4  0  0  0  0
174175  1  0  0  0  0
175176  4  0  0  0  0
175177  2  0  0  0  0
174178  4  0  0  0  0
171179  4  0  0  0  0
178179  4  0  0  0  0
140180  1  0  0  0  0
141181  1  0  0  0  0
146182  1  0  0  0  0
147183  1  0  0  0  0
152184  1  0  0  0  0
153185  1  0  0  0  0
157186  1  0  0  0  0
158187  1  0  0  0  0
161188  1  0  0  0  0
163189  1  0  0  0  0
164190  1  0  0  0  0
166191  1  0  0  0  0
167192  1  0  0  0  0
172193  1  0  0  0  0
173194  1  0  0  0  0
176195  1  0  0  0  0
178196  1  0  0  0  0
179197  1  0  0  0  0
132199  4  0  0  0  0
199200  4  0  0  0  0
200201  4  0  0  0  0
201202  2  0  0  0  0
202203  4  0  0  0  0
198204  1  0  0  0  0
200204  4  0  0  0  0
203204  4  0  0  0  0
203205  4  0  0  0  0
205206  4  0  0  0  0
206207  4  0  0  0  0
207208  2  0  0  0  0
198209  1  0  0  0  0
206209  4  0  0  0  0
208210  4  0  0  0  0
209210  4  0  0  0  0
134211  4  0  0  0  0
210211  4  0  0  0  0
211212  4  0  0  0  0
212213  4  0  0  0  0
213214  2  0  0  0  0
214215  4  0  0  0  0
215216  4  0  0  0  0
216217  1  0  0  0  0
217218  4  0  0  0  0
218219  4  0  0  0  0
219220  4  0  0  0  0
220221  1  0  0  0  0
221222  4  0  0  0  0
221223  2  0  0  0  0
220224  4  0  0  0  0
217225  4  0  0  0  0
224225  4  0  0  0  0
216226  4  0  0  0  0
226227  4  0  0  0  0
227228  2  0  0  0  0
199229  4  0  0  0  0
228229  4  0  0  0  0
198230  1  0  0  0  0
226230  4  0  0  0  0
229230  4  0  0  0  0
198231  1  0  0  0  0
212231  4  0  0  0  0
215231  4  0  0  0  0
205232  1  0  0  0  0
232233  4  0  0  0  0
233234  4  0  0  0  0
234235  4  0  0  0  0
235236  1  0  0  0  0
236237  4  0  0  0  0
236238  2  0  0  0  0
235239  4  0  0  0  0
232240  4  0  0  0  0
239240  4  0  0  0  0
201241  1  0  0  0  0
202242  1  0  0  0  0
207243  1  0  0  0  0
208244  1  0  0  0  0
213245  1  0  0  0  0
214246  1  0  0  0  0
218247  1  0  0  0  0
219248  1  0  0  0  0
222249  1  0  0  0  0
224250  1  0  0  0  0
225251  1  0  0  0  0
227252  1  0  0  0  0
228253  1  0  0  0  0
233254  1  0  0  0  0
234255  1  0  0  0  0
237256  1  0  0  0  0
239257  1  0  0  0  0
240258  1  0  0  0  0
M  END
