678

C 145.166883 0.086960 0.125678
C 145.896147 -1.279552 -0.055377
C 145.292987 -2.516411 -0.082170
C 146.315164 -3.471583 -0.319608
C 147.507792 -2.783837 -0.437023
N 147.246654 -1.453923 -0.220962
C 148.927126 -3.399518 -0.783039
C 148.958829 -4.788071 -1.294768
C 148.754040 -5.039620 -2.658123
C 148.745381 -6.349273 -3.138897
C 148.940975 -7.404910 -2.244082
S 148.836020 -9.077433 -2.809149
O 148.248823 -9.080886 -4.133972
O 147.704398 -9.728656 -1.855103
O 150.092161 -9.737569 -2.529745
C 149.156801 -7.168973 -0.882704
C 149.167694 -5.856557 -0.411929
C 150.058435 -2.657138 -0.651456
C 151.359972 -3.173216 -1.022768
C 152.263324 -2.223048 -0.811467
N 150.257202 -1.377661 -0.205952
C 151.587834 -1.057147 -0.277065
C 152.256438 0.079472 0.053345
C 151.479484 1.315221 0.674165
C 152.014682 2.282720 1.501591
C 150.989411 3.220428 1.780616
C 149.855355 2.794578 1.122139
N 150.148387 1.605119 0.498176
C 148.449139 3.527765 1.103660
C 148.430239 4.984634 1.354956
C 148.807817 5.873212 0.339847
C 148.843216 7.245787 0.584394
C 148.495618 7.723569 1.852134
S 148.659773 9.451915 2.190813
O 147.598956 10.155128 1.505463
O 150.062444 9.851460 1.491871
O 148.894274 9.614840 3.611212
C 148.107613 6.850875 2.872431
C 148.074681 5.479735 2.617825
C 147.321580 2.818082 0.843549
C 146.002744 3.423598 0.794819
C 145.114846 2.468810 0.533044
C 145.832642 1.225232 0.395948
N 147.153687 1.487832 0.580399
H 144.089679 0.107940 0.011553
H 144.237821 -2.706867 0.040290
H 146.189607 -4.539104 -0.416726
H 147.945007 -0.715111 -0.185681
H 148.597012 -4.199060 -3.331912
H 148.576424 -6.526639 -4.197181
H 146.829208 -9.499944 -2.229839
H 149.312781 -7.990297 -0.188753
H 149.332812 -5.645359 0.643274
H 151.570821 -4.152202 -1.414595
H 153.315756 -2.327012 -1.002918
H 153.032882 2.316888 1.859221
H 151.071008 4.106919 2.390894
H 149.467564 1.007875 0.035838
H 149.080028 5.476172 -0.636713
H 149.144625 7.922814 -0.210207
H 150.788095 9.532659 2.067191
H 147.844006 7.216905 3.860799
H 147.782597 4.777189 3.396822
H 145.775847 4.464111 0.941284
H 144.052278 2.595823 0.432090
C 272.004080 0.034657 0.110615
C 271.274816 1.288133 0.684145
C 271.877976 2.349765 1.319342
C 270.855799 3.284904 1.626334
C 269.663171 2.764969 1.161094
N 269.924310 1.523866 0.636673
C 268.243837 3.470378 1.195566
C 268.212134 4.918403 1.500803
C 268.416923 5.856586 0.480104
C 268.425583 7.221333 0.769586
C 268.229989 7.639301 2.088816
S 268.334944 9.356164 2.499929
O 268.922140 10.063763 1.379897
O 269.466565 9.400167 3.654208
O 267.078802 9.766556 3.087658
C 268.014162 6.715390 3.116145
C 268.003269 5.353622 2.816725
C 267.112528 2.771736 0.912120
C 265.810991 3.406256 0.872192
C 264.907640 2.489256 0.545728
N 266.913762 1.451303 0.608821
C 265.583129 1.217714 0.378120
C 264.914525 0.079472 0.053345
C 265.691480 -1.297183 -0.078236
C 265.156281 -2.556576 0.107821
C 266.181553 -3.499047 -0.154666
C 267.315608 -2.788190 -0.485759
N 267.022576 -1.449062 -0.381462
C 268.721824 -3.399229 -0.891390
C 268.740724 -4.766580 -1.453500
C 268.363147 -4.979096 -2.785737
C 268.327748 -6.271477 -3.308727
C 268.675345 -7.350377 -2.489328
S 268.511191 -8.994097 -3.121841
O 269.572007 -9.225044 -4.076240
O 267.108520 -8.960666 -3.926228
O 268.276689 -9.887574 -2.005697
C 269.063350 -7.154071 -1.161147
C 269.096283 -5.857555 -0.647440
C 269.849383 -2.659911 -0.734173
C 271.168219 -3.146746 -1.097513
C 272.056117 -2.198987 -0.811333
C 271.338321 -1.072995 -0.265967
N 270.017276 -1.393477 -0.249450
H 273.081284 0.077594 0.002813
H 272.933142 2.445907 1.524346
H 270.981357 4.240545 2.111910
H 269.225957 0.879469 0.273575
H 268.573951 5.503182 -0.537560
H 268.594539 7.934429 -0.032235
H 270.341755 9.405813 3.215227
H 267.858182 7.041780 4.140650
H 267.838152 4.613514 3.597942
H 265.600142 4.443681 1.061113
H 263.855208 2.679126 0.438905
H 264.138081 -2.775733 0.392490
H 266.099955 -4.574341 -0.109404
H 267.703399 -0.697393 -0.455298
H 268.090936 -4.123447 -3.401508
H 268.026338 -6.422139 -4.341711
H 266.382869 -8.996716 -3.269472
H 269.326957 -7.989742 -0.518883
H 269.388366 -5.676983 0.385905
H 271.395116 -4.105765 -1.526934
H 273.118686 -2.252845 -0.964380
C 155.466474 0.091909 0.055787
C 154.214203 0.072728 0.051438
C 156.780142 0.091143 0.057719
C 158.283276 0.072728 0.051438
C 168.561910 0.091909 0.055787
C 167.309640 0.072728 0.051438
C 169.875578 0.091143 0.057719
C 171.378712 0.072728 0.051438
C 181.657346 0.091909 0.055787
C 180.405076 0.072728 0.051438
C 182.971015 0.091143 0.057719
C 184.474148 0.072728 0.051438
C 194.752783 0.091909 0.055787
C 193.500512 0.072728 0.051438
C 196.066451 0.091143 0.057719
C 197.569585 0.072728 0.051438
C 207.848219 0.091909 0.055787
C 206.595949 0.072728 0.051438
C 209.161887 0.091143 0.057719
C 210.665021 0.072728 0.051438
C 220.943655 0.091909 0.055787
C 219.691385 0.072728 0.051438
C 222.257323 0.091143 0.057719
C 223.760457 0.072728 0.051438
C 234.039092 0.091909 0.055787
C 232.786821 0.072728 0.051438
C 235.352760 0.091143 0.057719
C 236.855893 0.072728 0.051438
C 247.134528 0.091909 0.055787
C 245.882257 0.072728 0.051438
C 248.448196 0.091143 0.057719
C 249.951330 0.072728 0.051438
C 260.229964 0.091909 0.055787
C 258.977694 0.072728 0.051438
C 261.543632 0.091143 0.057719
C 263.046766 0.072728 0.051438
C 159.253562 -0.025292 -0.017161
C 160.050740 0.443344 -1.302366
C 159.554224 0.560589 -2.584430
C 160.593915 1.086967 -3.393852
C 161.693100 1.268848 -2.581109
N 161.375893 0.801654 -1.330783
C 163.078910 1.904904 -2.999725
C 163.065259 2.925495 -4.070281
C 163.388610 2.574928 -5.388200
C 163.340689 3.532039 -6.401098
C 162.974747 4.844506 -6.085059
S 162.840261 6.025975 -7.394899
O 162.228732 7.230836 -6.871540
O 161.721231 5.381657 -8.367341
O 164.092690 6.059038 -8.114582
C 162.666628 5.213462 -4.772788
C 162.709326 4.247043 -3.767721
C 164.216652 1.558037 -2.344799
C 165.502017 2.143405 -2.663783
C 166.413490 1.618089 -1.851988
N 164.428642 0.679989 -1.319205
C 165.753519 0.673037 -0.974004
C 166.418960 -0.025292 -0.017161
C 165.624518 -1.028201 0.917359
C 166.131221 -2.146930 1.545822
C 165.092660 -2.687275 2.348282
C 163.981969 -1.887801 2.175163
N 164.294705 -0.927476 1.246214
C 162.592291 -2.035098 2.917295
C 162.598886 -2.649906 4.263354
C 162.194621 -3.981173 4.435466
C 162.180366 -4.552578 5.707214
C 162.580784 -3.785129 6.805658
S 162.451875 -4.483560 8.425452
O 163.454994 -5.516085 8.557972
O 160.998017 -5.192457 8.423722
O 162.334324 -3.401851 9.381663
C 163.000266 -2.461348 6.648835
C 163.010620 -1.898123 5.372482
C 161.454198 -1.558792 2.347049
C 160.166571 -1.625453 3.007831
C 159.256401 -1.076931 2.209894
C 159.918049 -0.632779 1.000429
N 161.243311 -0.944926 1.144296
H 158.551550 0.314495 -2.899343
H 160.539742 1.322801 -4.445418
H 162.031623 0.692499 -0.562719
H 163.673988 1.547710 -5.607739
H 163.586039 3.248268 -7.421028
H 160.841063 5.584591 -7.989080
H 162.385562 6.231830 -4.518654
H 162.464692 4.505480 -2.738370
H 165.697145 2.880197 -3.422432
H 167.459465 1.867103 -1.860414
H 167.140510 -2.520179 1.460070
H 165.157031 -3.549673 2.994609
H 163.636047 -0.271185 0.837088
H 161.880532 -4.555398 3.565495
H 161.855028 -5.582103 5.828310
H 160.321987 -4.494559 8.556686
H 163.306443 -1.858980 7.499841
H 163.325668 -0.866187 5.224866
H 159.969459 -2.037898 3.980291
H 158.210834 -0.982982 2.440518
C 172.348998 -0.025292 -0.017161
C 173.146177 0.443344 -1.302366
C 172.649660 0.560589 -2.584430
C 173.689352 1.086967 -3.393852
C 174.788536 1.268848 -2.581109
N 174.471330 0.801654 -1.330783
C 176.174346 1.904904 -2.999725
C 176.160695 2.925495 -4.070281
C 176.484046 2.574928 -5.388200
C 176.436125 3.532039 -6.401098
C 176.070183 4.844506 -6.085059
S 175.935697 6.025975 -7.394899
O 175.324168 7.230836 -6.871540
O 174.816668 5.381657 -8.367341
O 177.188127 6.059038 -8.114582
C 175.762064 5.213462 -4.772788
C 175.804762 4.247043 -3.767721
C 177.312088 1.558037 -2.344799
C 178.597453 2.143405 -2.663783
C 179.508926 1.618089 -1.851988
N 177.524079 0.679989 -1.319205
C 178.848955 0.673037 -0.974004
C 179.514396 -0.025292 -0.017161
C 178.719955 -1.028201 0.917359
C 179.226657 -2.146930 1.545822
C 178.188096 -2.687275 2.348282
C 177.077405 -1.887801 2.175163
N 177.390141 -0.927476 1.246214
C 175.687727 -2.035098 2.917295
C 175.694323 -2.649906 4.263354
C 175.290057 -3.981173 4.435466
C 175.275802 -4.552578 5.707214
C 175.676220 -3.785129 6.805658
S 175.547311 -4.483560 8.425452
O 176.550430 -5.516085 8.557972
O 174.093453 -5.192457 8.423722
O 175.429761 -3.401851 9.381663
C 176.095702 -2.461348 6.648835
C 176.106057 -1.898123 5.372482
C 174.549634 -1.558792 2.347049
C 173.262007 -1.625453 3.007831
C 172.351838 -1.076931 2.209894
C 173.013485 -0.632779 1.000429
N 174.338747 -0.944926 1.144296
H 171.646986 0.314495 -2.899343
H 173.635178 1.322801 -4.445418
H 175.127060 0.692499 -0.562719
H 176.769424 1.547710 -5.607739
H 176.681476 3.248268 -7.421028
H 173.936500 5.584591 -7.989080
H 175.480998 6.231830 -4.518654
H 175.560128 4.505480 -2.738370
H 178.792581 2.880197 -3.422432
H 180.554901 1.867103 -1.860414
H 180.235947 -2.520179 1.460070
H 178.252467 -3.549673 2.994609
H 176.731484 -0.271185 0.837088
H 174.975968 -4.555398 3.565495
H 174.950464 -5.582103 5.828310
H 173.417423 -4.494559 8.556686
H 176.401879 -1.858980 7.499841
H 176.421104 -0.866187 5.224866
H 173.064896 -2.037898 3.980291
H 171.306270 -0.982982 2.440518
C 185.444434 -0.025292 -0.017161
C 186.241613 0.443344 -1.302366
C 185.745096 0.560589 -2.584430
C 186.784788 1.086967 -3.393852
C 187.883972 1.268848 -2.581109
N 187.566766 0.801654 -1.330783
C 189.269783 1.904904 -2.999725
C 189.256132 2.925495 -4.070281
C 189.579482 2.574928 -5.388200
C 189.531561 3.532039 -6.401098
C 189.165620 4.844506 -6.085059
S 189.031133 6.025975 -7.394899
O 188.419604 7.230836 -6.871540
O 187.912104 5.381657 -8.367341
O 190.283563 6.059038 -8.114582
C 188.857500 5.213462 -4.772788
C 188.900198 4.247043 -3.767721
C 190.407524 1.558037 -2.344799
C 191.692889 2.143405 -2.663783
C 192.604363 1.618089 -1.851988
N 190.619515 0.679989 -1.319205
C 191.944391 0.673037 -0.974004
C 192.609832 -0.025292 -0.017161
C 191.815391 -1.028201 0.917359
C 192.322093 -2.146930 1.545822
C 191.283533 -2.687275 2.348282
C 190.172842 -1.887801 2.175163
N 190.485578 -0.927476 1.246214
C 188.783163 -2.035098 2.917295
C 188.789759 -2.649906 4.263354
C 188.385493 -3.981173 4.435466
C 188.371239 -4.552578 5.707214
C 188.771656 -3.785129 6.805658
S 188.642748 -4.483560 8.425452
O 189.645867 -5.516085 8.557972
O 187.188890 -5.192457 8.423722
O 188.525197 -3.401851 9.381663
C 189.191138 -2.461348 6.648835
C 189.201493 -1.898123 5.372482
C 187.645070 -1.558792 2.347049
C 186.357444 -1.625453 3.007831
C 185.447274 -1.076931 2.209894
C 186.108921 -0.632779 1.000429
N 187.434184 -0.944926 1.144296
H 184.742422 0.314495 -2.899343
H 186.730614 1.322801 -4.445418
H 188.222496 0.692499 -0.562719
H 189.864860 1.547710 -5.607739
H 189.776912 3.248268 -7.421028
H 187.031936 5.584591 -7.989080
H 188.576435 6.231830 -4.518654
H 188.655565 4.505480 -2.738370
H 191.888017 2.880197 -3.422432
H 193.650338 1.867103 -1.860414
H 193.331383 -2.520179 1.460070
H 191.347903 -3.549673 2.994609
H 189.826920 -0.271185 0.837088
H 188.071404 -4.555398 3.565495
H 188.045900 -5.582103 5.828310
H 186.512859 -4.494559 8.556686
H 189.497315 -1.858980 7.499841
H 189.516540 -0.866187 5.224866
H 186.160332 -2.037898 3.980291
H 184.401706 -0.982982 2.440518
C 198.539871 -0.025292 -0.017161
C 199.337049 0.443344 -1.302366
C 198.840533 0.560589 -2.584430
C 199.880224 1.086967 -3.393852
C 200.979409 1.268848 -2.581109
N 200.662202 0.801654 -1.330783
C 202.365219 1.904904 -2.999725
C 202.351568 2.925495 -4.070281
C 202.674919 2.574928 -5.388200
C 202.626998 3.532039 -6.401098
C 202.261056 4.844506 -6.085059
S 202.126570 6.025975 -7.394899
O 201.515040 7.230836 -6.871540
O 201.007540 5.381657 -8.367341
O 203.378999 6.059038 -8.114582
C 201.952936 5.213462 -4.772788
C 201.995635 4.247043 -3.767721
C 203.502961 1.558037 -2.344799
C 204.788325 2.143405 -2.663783
C 205.699799 1.618089 -1.851988
N 203.714951 0.679989 -1.319205
C 205.039828 0.673037 -0.974004
C 205.705268 -0.025292 -0.017161
C 204.910827 -1.028201 0.917359
C 205.417529 -2.146930 1.545822
C 204.378969 -2.687275 2.348282
C 203.268278 -1.887801 2.175163
N 203.581014 -0.927476 1.246214
C 201.878599 -2.035098 2.917295
C 201.885195 -2.649906 4.263354
C 201.480929 -3.981173 4.435466
C 201.466675 -4.552578 5.707214
C 201.867093 -3.785129 6.805658
S 201.738184 -4.483560 8.425452
O 202.741303 -5.516085 8.557972
O 200.284326 -5.192457 8.423722
O 201.620633 -3.401851 9.381663
C 202.286575 -2.461348 6.648835
C 202.296929 -1.898123 5.372482
C 200.740507 -1.558792 2.347049
C 199.452880 -1.625453 3.007831
C 198.542710 -1.076931 2.209894
C 199.204357 -0.632779 1.000429
N 200.529620 -0.944926 1.144296
H 197.837859 0.314495 -2.899343
H 199.826050 1.322801 -4.445418
H 201.317932 0.692499 -0.562719
H 202.960297 1.547710 -5.607739
H 202.872348 3.248268 -7.421028
H 200.127372 5.584591 -7.989080
H 201.671871 6.231830 -4.518654
H 201.751001 4.505480 -2.738370
H 204.983453 2.880197 -3.422432
H 206.745774 1.867103 -1.860414
H 206.426819 -2.520179 1.460070
H 204.443340 -3.549673 2.994609
H 202.922356 -0.271185 0.837088
H 201.166841 -4.555398 3.565495
H 201.141336 -5.582103 5.828310
H 199.608296 -4.494559 8.556686
H 202.592752 -1.858980 7.499841
H 202.611976 -0.866187 5.224866
H 199.255768 -2.037898 3.980291
H 197.497142 -0.982982 2.440518
C 211.635307 -0.025292 -0.017161
C 212.432485 0.443344 -1.302366
C 211.935969 0.560589 -2.584430
C 212.975660 1.086967 -3.393852
C 214.074845 1.268848 -2.581109
N 213.757638 0.801654 -1.330783
C 215.460655 1.904904 -2.999725
C 215.447004 2.925495 -4.070281
C 215.770355 2.574928 -5.388200
C 215.722434 3.532039 -6.401098
C 215.356492 4.844506 -6.085059
S 215.222006 6.025975 -7.394899
O 214.610477 7.230836 -6.871540
O 214.102976 5.381657 -8.367341
O 216.474436 6.059038 -8.114582
C 215.048373 5.213462 -4.772788
C 215.091071 4.247043 -3.767721
C 216.598397 1.558037 -2.344799
C 217.883762 2.143405 -2.663783
C 218.795235 1.618089 -1.851988
N 216.810387 0.679989 -1.319205
C 218.135264 0.673037 -0.974004
C 218.800705 -0.025292 -0.017161
C 218.006263 -1.028201 0.917359
C 218.512966 -2.146930 1.545822
C 217.474405 -2.687275 2.348282
C 216.363714 -1.887801 2.175163
N 216.676450 -0.927476 1.246214
C 214.974036 -2.035098 2.917295
C 214.980632 -2.649906 4.263354
C 214.576366 -3.981173 4.435466
C 214.562111 -4.552578 5.707214
C 214.962529 -3.785129 6.805658
S 214.833620 -4.483560 8.425452
O 215.836739 -5.516085 8.557972
O 213.379762 -5.192457 8.423722
O 214.716070 -3.401851 9.381663
C 215.382011 -2.461348 6.648835
C 215.392365 -1.898123 5.372482
C 213.835943 -1.558792 2.347049
C 212.548316 -1.625453 3.007831
C 211.638146 -1.076931 2.209894
C 212.299794 -0.632779 1.000429
N 213.625056 -0.944926 1.144296
H 210.933295 0.314495 -2.899343
H 212.921487 1.322801 -4.445418
H 214.413369 0.692499 -0.562719
H 216.055733 1.547710 -5.607739
H 215.967785 3.248268 -7.421028
H 213.222808 5.584591 -7.989080
H 214.767307 6.231830 -4.518654
H 214.846437 4.505480 -2.738370
H 218.078890 2.880197 -3.422432
H 219.841210 1.867103 -1.860414
H 219.522255 -2.520179 1.460070
H 217.538776 -3.549673 2.994609
H 216.017792 -0.271185 0.837088
H 214.262277 -4.555398 3.565495
H 214.236773 -5.582103 5.828310
H 212.703732 -4.494559 8.556686
H 215.688188 -1.858980 7.499841
H 215.707413 -0.866187 5.224866
H 212.351204 -2.037898 3.980291
H 210.592579 -0.982982 2.440518
C 224.730743 -0.025292 -0.017161
C 225.527922 0.443344 -1.302366
C 225.031405 0.560589 -2.584430
C 226.071097 1.086967 -3.393852
C 227.170281 1.268848 -2.581109
N 226.853075 0.801654 -1.330783
C 228.556092 1.904904 -2.999725
C 228.542441 2.925495 -4.070281
C 228.865791 2.574928 -5.388200
C 228.817870 3.532039 -6.401098
C 228.451928 4.844506 -6.085059
S 228.317442 6.025975 -7.394899
O 227.705913 7.230836 -6.871540
O 227.198413 5.381657 -8.367341
O 229.569872 6.059038 -8.114582
C 228.143809 5.213462 -4.772788
C 228.186507 4.247043 -3.767721
C 229.693833 1.558037 -2.344799
C 230.979198 2.143405 -2.663783
C 231.890671 1.618089 -1.851988
N 229.905824 0.679989 -1.319205
C 231.230700 0.673037 -0.974004
C 231.896141 -0.025292 -0.017161
C 231.101700 -1.028201 0.917359
C 231.608402 -2.146930 1.545822
C 230.569841 -2.687275 2.348282
C 229.459151 -1.887801 2.175163
N 229.771887 -0.927476 1.246214
C 228.069472 -2.035098 2.917295
C 228.076068 -2.649906 4.263354
C 227.671802 -3.981173 4.435466
C 227.657547 -4.552578 5.707214
C 228.057965 -3.785129 6.805658
S 227.929056 -4.483560 8.425452
O 228.932176 -5.516085 8.557972
O 226.475199 -5.192457 8.423722
O 227.811506 -3.401851 9.381663
C 228.477447 -2.461348 6.648835
C 228.487802 -1.898123 5.372482
C 226.931379 -1.558792 2.347049
C 225.643752 -1.625453 3.007831
C 224.733583 -1.076931 2.209894
C 225.395230 -0.632779 1.000429
N 226.720492 -0.944926 1.144296
H 224.028731 0.314495 -2.899343
H 226.016923 1.322801 -4.445418
H 227.508805 0.692499 -0.562719
H 229.151169 1.547710 -5.607739
H 229.063221 3.248268 -7.421028
H 226.318245 5.584591 -7.989080
H 227.862743 6.231830 -4.518654
H 227.941873 4.505480 -2.738370
H 231.174326 2.880197 -3.422432
H 232.936646 1.867103 -1.860414
H 232.617692 -2.520179 1.460070
H 230.634212 -3.549673 2.994609
H 229.113229 -0.271185 0.837088
H 227.357713 -4.555398 3.565495
H 227.332209 -5.582103 5.828310
H 225.799168 -4.494559 8.556686
H 228.783624 -1.858980 7.499841
H 228.802849 -0.866187 5.224866
H 225.446641 -2.037898 3.980291
H 223.688015 -0.982982 2.440518
C 237.826180 -0.025292 -0.017161
C 238.623358 0.443344 -1.302366
C 238.126842 0.560589 -2.584430
C 239.166533 1.086967 -3.393852
C 240.265717 1.268848 -2.581109
N 239.948511 0.801654 -1.330783
C 241.651528 1.904904 -2.999725
C 241.637877 2.925495 -4.070281
C 241.961227 2.574928 -5.388200
C 241.913307 3.532039 -6.401098
C 241.547365 4.844506 -6.085059
S 241.412878 6.025975 -7.394899
O 240.801349 7.230836 -6.871540
O 240.293849 5.381657 -8.367341
O 242.665308 6.059038 -8.114582
C 241.239245 5.213462 -4.772788
C 241.281944 4.247043 -3.767721
C 242.789269 1.558037 -2.344799
C 244.074634 2.143405 -2.663783
C 244.986108 1.618089 -1.851988
N 243.001260 0.679989 -1.319205
C 244.326136 0.673037 -0.974004
C 244.991577 -0.025292 -0.017161
C 244.197136 -1.028201 0.917359
C 244.703838 -2.146930 1.545822
C 243.665278 -2.687275 2.348282
C 242.554587 -1.887801 2.175163
N 242.867323 -0.927476 1.246214
C 241.164908 -2.035098 2.917295
C 241.171504 -2.649906 4.263354
C 240.767238 -3.981173 4.435466
C 240.752984 -4.552578 5.707214
C 241.153401 -3.785129 6.805658
S 241.024493 -4.483560 8.425452
O 242.027612 -5.516085 8.557972
O 239.570635 -5.192457 8.423722
O 240.906942 -3.401851 9.381663
C 241.572883 -2.461348 6.648835
C 241.583238 -1.898123 5.372482
C 240.026816 -1.558792 2.347049
C 238.739189 -1.625453 3.007831
C 237.829019 -1.076931 2.209894
C 238.490666 -0.632779 1.000429
N 239.815929 -0.944926 1.144296
H 237.124167 0.314495 -2.899343
H 239.112359 1.322801 -4.445418
H 240.604241 0.692499 -0.562719
H 242.246605 1.547710 -5.607739
H 242.158657 3.248268 -7.421028
H 239.413681 5.584591 -7.989080
H 240.958180 6.231830 -4.518654
H 241.037310 4.505480 -2.738370
H 244.269762 2.880197 -3.422432
H 246.032083 1.867103 -1.860414
H 245.713128 -2.520179 1.460070
H 243.729648 -3.549673 2.994609
H 242.208665 -0.271185 0.837088
H 240.453149 -4.555398 3.565495
H 240.427645 -5.582103 5.828310
H 238.894605 -4.494559 8.556686
H 241.879060 -1.858980 7.499841
H 241.898285 -0.866187 5.224866
H 238.542077 -2.037898 3.980291
H 236.783451 -0.982982 2.440518
C 250.921616 -0.025292 -0.017161
C 251.718794 0.443344 -1.302366
C 251.222278 0.560589 -2.584430
C 252.261969 1.086967 -3.393852
C 253.361154 1.268848 -2.581109
N 253.043947 0.801654 -1.330783
C 254.746964 1.904904 -2.999725
C 254.733313 2.925495 -4.070281
C 255.056664 2.574928 -5.388200
C 255.008743 3.532039 -6.401098
C 254.642801 4.844506 -6.085059
S 254.508315 6.025975 -7.394899
O 253.896785 7.230836 -6.871540
O 253.389285 5.381657 -8.367341
O 255.760744 6.059038 -8.114582
C 254.334681 5.213462 -4.772788
C 254.377380 4.247043 -3.767721
C 255.884706 1.558037 -2.344799
C 257.170070 2.143405 -2.663783
C 258.081544 1.618089 -1.851988
N 256.096696 0.679989 -1.319205
C 257.421573 0.673037 -0.974004
C 258.087014 -0.025292 -0.017161
C 257.292572 -1.028201 0.917359
C 257.799275 -2.146930 1.545822
C 256.760714 -2.687275 2.348282
C 255.650023 -1.887801 2.175163
N 255.962759 -0.927476 1.246214
C 254.260344 -2.035098 2.917295
C 254.266940 -2.649906 4.263354
C 253.862675 -3.981173 4.435466
C 253.848420 -4.552578 5.707214
C 254.248838 -3.785129 6.805658
S 254.119929 -4.483560 8.425452
O 255.123048 -5.516085 8.557972
O 252.666071 -5.192457 8.423722
O 254.002378 -3.401851 9.381663
C 254.668320 -2.461348 6.648835
C 254.678674 -1.898123 5.372482
C 253.122252 -1.558792 2.347049
C 251.834625 -1.625453 3.007831
C 250.924455 -1.076931 2.209894
C 251.586103 -0.632779 1.000429
N 252.911365 -0.944926 1.144296
H 250.219604 0.314495 -2.899343
H 252.207796 1.322801 -4.445418
H 253.699677 0.692499 -0.562719
H 255.342042 1.547710 -5.607739
H 255.254093 3.248268 -7.421028
H 252.509117 5.584591 -7.989080
H 254.053616 6.231830 -4.518654
H 254.132746 4.505480 -2.738370
H 257.365198 2.880197 -3.422432
H 259.127519 1.867103 -1.860414
H 258.808564 -2.520179 1.460070
H 256.825085 -3.549673 2.994609
H 255.304101 -0.271185 0.837088
H 253.548586 -4.555398 3.565495
H 253.523081 -5.582103 5.828310
H 251.990041 -4.494559 8.556686
H 254.974497 -1.858980 7.499841
H 254.993721 -0.866187 5.224866
H 251.637513 -2.037898 3.980291
H 249.878888 -0.982982 2.440518
