606

C 121.748705 0.100515 -0.013544
C 122.473106 0.011903 1.363560
C 121.853213 -0.020960 2.592550
C 122.873894 -0.138661 3.569942
C 124.085265 -0.172328 2.903934
N 123.828466 -0.058252 1.561049
C 125.517250 -0.350219 3.561419
C 125.570465 -0.621795 5.017356
C 125.768910 0.416428 5.925476
C 125.803738 0.158706 7.303924
C 125.627421 -1.135697 7.831615
N 125.666749 -1.383522 9.216742
C 125.369903 -0.265621 10.108950
C 125.253534 -2.699182 9.694894
C 125.454390 -2.166284 6.886742
C 125.418525 -1.917483 5.506149
C 126.644989 -0.280981 2.802924
C 127.956517 -0.507791 3.374045
C 128.858830 -0.405440 2.405992
N 126.836945 -0.028844 1.468883
C 128.173875 -0.088929 1.167994
C 128.846654 0.090661 -0.000213
C 128.074248 0.482177 -1.332768
C 128.640349 1.039070 -2.464495
C 127.614661 1.187278 -3.429104
C 126.444901 0.731615 -2.856650
N 126.726792 0.342177 -1.567734
C 125.021066 0.686965 -3.558240
C 124.972368 0.835514 -5.029633
C 124.796710 2.090257 -5.610668
C 124.789747 2.231931 -7.005432
C 124.969143 1.135509 -7.871906
N 124.969396 1.301394 -9.271508
C 125.230313 0.131158 -10.104347
C 125.523744 2.559855 -9.770227
C 125.105989 -0.123188 -7.255693
C 125.118323 -0.273197 -5.860712
C 123.898823 0.519987 -2.811315
C 122.570270 0.476951 -3.397070
C 121.686582 0.320439 -2.416169
C 122.414955 0.253074 -1.172974
N 123.739572 0.367160 -1.461634
H 120.667241 0.029169 -0.022207
H 120.788682 0.024216 2.765411
H 122.740261 -0.203436 4.640024
H 124.533225 -0.027348 0.828465
H 125.904608 1.428243 5.550105
H 125.981447 1.012581 7.948221
H 124.387701 0.169243 9.890495
H 125.359851 -0.589821 11.156188
H 126.140481 0.509968 10.045955
H 124.206273 -2.901580 9.444166
H 125.892267 -3.490887 9.288558
H 125.351349 -2.767678 10.784373
H 125.338623 -3.200844 7.189518
H 125.277749 -2.735162 4.802807
H 128.174167 -0.735189 4.402637
H 129.916817 -0.532312 2.544989
H 129.679616 1.300732 -2.592537
H 127.718601 1.579800 -4.429778
H 126.033747 0.039575 -0.887709
H 124.663162 2.957950 -4.968186
H 124.625694 3.232361 -7.390822
H 125.126628 0.382910 -11.166200
H 126.246380 -0.248715 -9.949837
H 124.504051 -0.666310 -9.911953
H 124.878820 3.408677 -9.521836
H 125.595109 2.549836 -10.863603
H 126.531750 2.735708 -9.377675
H 125.224012 -1.031248 -7.835955
H 125.243219 -1.257432 -5.413635
H 122.335453 0.559190 -4.443459
H 120.619063 0.253705 -2.524175
C 230.136533 0.097117 0.015055
C 229.412132 0.333651 -1.344473
C 230.032026 0.589676 -2.546949
C 229.011344 0.704272 -3.524710
C 227.799973 0.515484 -2.885132
N 228.056773 0.311724 -1.552903
C 226.367988 0.496606 -3.565996
C 226.314773 0.573742 -5.045034
C 226.116329 1.795849 -5.684600
C 226.081500 1.868296 -7.085060
C 226.257817 0.733575 -7.901362
N 226.218489 0.817209 -9.305996
C 226.515335 2.113047 -9.911422
C 226.631704 -0.349784 -10.079119
C 226.430848 -0.489719 -7.224278
C 226.466713 -0.571343 -5.823822
C 225.240249 0.386188 -2.812394
C 223.928722 0.299516 -3.420760
C 223.026408 0.172186 -2.455675
N 225.048293 0.318717 -1.456412
C 223.711363 0.189802 -1.177979
C 223.038584 0.090661 -0.000213
C 223.810990 0.159037 1.386983
C 223.244890 0.435243 2.617693
C 224.270577 0.353301 3.590174
C 225.440338 0.044459 2.926888
N 225.158446 -0.032122 1.582603
C 226.864172 -0.163343 3.598483
C 226.912870 -0.363702 5.063721
C 227.088528 0.719963 5.922587
C 227.095492 0.530876 7.311718
C 226.916095 -0.738052 7.897160
N 226.915843 -0.904735 9.296667
C 226.654925 -2.237541 9.832113
C 226.361494 0.201832 10.076380
C 226.779249 -1.817317 7.003168
C 226.766915 -1.636282 5.611873
C 227.986416 -0.150654 2.833226
C 229.314968 -0.329745 3.392591
C 230.198656 -0.252058 2.402324
C 229.470284 -0.026246 1.177955
N 228.145666 0.017026 1.485311
H 231.217997 0.025727 0.006760
H 231.096556 0.674099 -2.704412
H 229.144977 0.892038 -4.580179
H 227.352013 0.170111 -0.833473
H 225.980630 2.691540 -5.082593
H 225.903791 2.849369 -7.511343
H 227.497537 2.484617 -9.597153
H 226.525387 2.043259 -11.005471
H 225.744758 2.852284 -9.668447
H 227.678966 -0.605297 -9.882795
H 225.992971 -1.214660 -9.869604
H 226.533889 -0.161089 -11.154316
H 226.546615 -1.424532 -7.761040
H 226.607489 -1.531062 -5.331657
H 223.711071 0.319466 -4.474000
H 221.968422 0.081416 -2.620530
H 222.205622 0.659619 2.803482
H 224.166637 0.500420 4.654964
H 225.851491 -0.166958 0.850605
H 227.222076 1.714044 5.501308
H 227.259544 1.413151 7.920797
H 226.758610 -2.241608 10.923394
H 225.638858 -2.570633 9.592894
H 227.381188 -2.967726 9.458215
H 227.006418 1.085225 10.033798
H 226.290129 -0.064105 11.136970
H 225.353488 0.464771 9.735962
H 226.661226 -2.836062 7.354502
H 226.642019 -2.488359 4.946619
H 229.549785 -0.494982 4.429118
H 231.266175 -0.342242 2.491686
C 132.611538 0.103097 0.002229
C 131.359268 0.083917 -0.002120
C 133.925207 0.102332 0.004161
C 135.428340 0.083917 -0.002120
C 146.809478 0.103097 0.002229
C 145.557207 0.083917 -0.002120
C 148.123146 0.102332 0.004161
C 149.626280 0.083917 -0.002120
C 161.007417 0.103097 0.002229
C 159.755147 0.083917 -0.002120
C 162.321085 0.102332 0.004161
C 163.824219 0.083917 -0.002120
C 175.205356 0.103097 0.002229
C 173.953086 0.083917 -0.002120
C 176.519025 0.102332 0.004161
C 178.022158 0.083917 -0.002120
C 189.403296 0.103097 0.002229
C 188.151025 0.083917 -0.002120
C 190.716964 0.102332 0.004161
C 192.220098 0.083917 -0.002120
C 203.601235 0.103097 0.002229
C 202.348965 0.083917 -0.002120
C 204.914903 0.102332 0.004161
C 206.418037 0.083917 -0.002120
C 217.799175 0.103097 0.002229
C 216.546904 0.083917 -0.002120
C 219.112843 0.102332 0.004161
C 220.615976 0.083917 -0.002120
C 136.874465 -0.036079 0.000209
C 137.668252 -0.386050 1.326569
C 137.160500 -1.001122 2.453274
C 138.197717 -1.037096 3.420108
C 139.308371 -0.449776 2.851241
N 138.997616 -0.126956 1.553982
C 140.698511 -0.182697 3.562814
C 140.687997 -0.001527 5.032479
C 140.238047 1.192280 5.593045
C 140.199933 1.356366 6.985823
C 140.589866 0.332636 7.868768
N 140.551815 0.476944 9.271106
C 140.076553 1.744119 9.817287
C 140.135108 -0.713531 10.012734
C 141.065519 -0.852156 7.274334
C 141.108202 -1.023169 5.883290
C 141.833131 -0.080950 2.821664
C 143.119740 0.219513 3.414911
C 144.027656 0.262516 2.445828
N 142.041248 -0.201526 1.475443
C 143.365514 -0.009554 1.185701
C 144.029104 -0.036079 0.000209
C 143.235305 -0.335187 -1.338554
C 143.742711 -0.909031 -2.487199
C 142.705799 -0.907863 -3.455023
C 141.595631 -0.340695 -2.864634
N 141.906274 -0.067295 -1.556071
C 140.205864 -0.045757 -3.565877
C 140.216837 0.187953 -5.028092
C 140.676202 1.396301 -5.547054
C 140.713635 1.607877 -6.933748
C 140.313428 0.620704 -7.854492
N 140.350512 0.825565 -9.247742
C 140.528953 -0.361892 -10.081235
C 140.977466 2.044412 -9.750271
C 139.829629 -0.579835 -7.298809
C 139.788493 -0.799528 -5.914055
C 139.071125 0.028545 -2.821237
C 137.784317 0.351320 -3.402317
C 136.876297 0.356918 -2.432158
C 137.538473 0.036828 -1.183430
N 138.863158 -0.142797 -1.480353
H 136.151183 -1.362863 2.577163
H 138.136529 -1.426788 4.425187
H 139.659014 0.213479 0.861786
H 139.914724 1.997565 4.936826
H 139.836309 2.311788 7.347074
H 140.195731 1.759850 10.907199
H 140.664254 2.587728 9.437442
H 139.014783 1.902589 9.595679
H 140.882181 -1.511068 9.951805
H 139.169586 -1.088790 9.653552
H 140.025757 -0.488355 11.080403
H 141.437951 -1.671374 7.879809
H 141.478142 -1.951972 5.454066
H 143.313845 0.390917 4.458913
H 145.071797 0.469656 2.592089
H 144.751789 -1.267287 -2.623789
H 142.766484 -1.259782 -4.474041
H 141.245729 0.249037 -0.851177
H 141.006451 2.176133 -4.863943
H 141.081305 2.574198 -7.260298
H 141.422225 -0.925267 -9.787830
H 139.650625 -1.014788 -10.040877
H 140.648222 -0.087386 -11.136042
H 142.044524 2.075155 -9.502785
H 140.888807 2.104961 -10.841170
H 140.480415 2.939422 -9.359556
H 139.456320 -1.380884 -7.926925
H 139.414511 -1.741053 -5.517502
H 137.589651 0.562327 -4.438764
H 135.831928 0.569429 -2.570078
C 151.072405 -0.036079 0.000209
C 151.866191 -0.386050 1.326569
C 151.358439 -1.001122 2.453274
C 152.395656 -1.037096 3.420108
C 153.506310 -0.449776 2.851241
N 153.195556 -0.126956 1.553982
C 154.896451 -0.182697 3.562814
C 154.885936 -0.001527 5.032479
C 154.435986 1.192280 5.593045
C 154.397872 1.356366 6.985823
C 154.787805 0.332636 7.868768
N 154.749754 0.476944 9.271106
C 154.274492 1.744119 9.817287
C 154.333048 -0.713531 10.012734
C 155.263459 -0.852156 7.274334
C 155.306141 -1.023169 5.883290
C 156.031070 -0.080950 2.821664
C 157.317680 0.219513 3.414911
C 158.225595 0.262516 2.445828
N 156.239187 -0.201526 1.475443
C 157.563453 -0.009554 1.185701
C 158.227043 -0.036079 0.000209
C 157.433245 -0.335187 -1.338554
C 157.940651 -0.909031 -2.487199
C 156.903739 -0.907863 -3.455023
C 155.793570 -0.340695 -2.864634
N 156.104213 -0.067295 -1.556071
C 154.403803 -0.045757 -3.565877
C 154.414776 0.187953 -5.028092
C 154.874142 1.396301 -5.547054
C 154.911575 1.607877 -6.933748
C 154.511368 0.620704 -7.854492
N 154.548451 0.825565 -9.247742
C 154.726892 -0.361892 -10.081235
C 155.175405 2.044412 -9.750271
C 154.027569 -0.579835 -7.298809
C 153.986432 -0.799528 -5.914055
C 153.269065 0.028545 -2.821237
C 151.982257 0.351320 -3.402317
C 151.074236 0.356918 -2.432158
C 151.736412 0.036828 -1.183430
N 153.061098 -0.142797 -1.480353
H 150.349122 -1.362863 2.577163
H 152.334469 -1.426788 4.425187
H 153.856953 0.213479 0.861786
H 154.112663 1.997565 4.936826
H 154.034249 2.311788 7.347074
H 154.393671 1.759850 10.907199
H 154.862193 2.587728 9.437442
H 153.212723 1.902589 9.595679
H 155.080121 -1.511068 9.951805
H 153.367525 -1.088790 9.653552
H 154.223696 -0.488355 11.080403
H 155.635891 -1.671374 7.879809
H 155.676082 -1.951972 5.454066
H 157.511784 0.390917 4.458913
H 159.269737 0.469656 2.592089
H 158.949728 -1.267287 -2.623789
H 156.964423 -1.259782 -4.474041
H 155.443668 0.249037 -0.851177
H 155.204390 2.176133 -4.863943
H 155.279244 2.574198 -7.260298
H 155.620165 -0.925267 -9.787830
H 153.848565 -1.014788 -10.040877
H 154.846161 -0.087386 -11.136042
H 156.242463 2.075155 -9.502785
H 155.086746 2.104961 -10.841170
H 154.678354 2.939422 -9.359556
H 153.654259 -1.380884 -7.926925
H 153.612450 -1.741053 -5.517502
H 151.787591 0.562327 -4.438764
H 150.029867 0.569429 -2.570078
C 165.270344 -0.036079 0.000209
C 166.064130 -0.386050 1.326569
C 165.556379 -1.001122 2.453274
C 166.593595 -1.037096 3.420108
C 167.704249 -0.449776 2.851241
N 167.393495 -0.126956 1.553982
C 169.094390 -0.182697 3.562814
C 169.083876 -0.001527 5.032479
C 168.633926 1.192280 5.593045
C 168.595812 1.356366 6.985823
C 168.985745 0.332636 7.868768
N 168.947694 0.476944 9.271106
C 168.472432 1.744119 9.817287
C 168.530987 -0.713531 10.012734
C 169.461398 -0.852156 7.274334
C 169.504081 -1.023169 5.883290
C 170.229009 -0.080950 2.821664
C 171.515619 0.219513 3.414911
C 172.423534 0.262516 2.445828
N 170.437126 -0.201526 1.475443
C 171.761392 -0.009554 1.185701
C 172.424982 -0.036079 0.000209
C 171.631184 -0.335187 -1.338554
C 172.138590 -0.909031 -2.487199
C 171.101678 -0.907863 -3.455023
C 169.991510 -0.340695 -2.864634
N 170.302153 -0.067295 -1.556071
C 168.601742 -0.045757 -3.565877
C 168.612715 0.187953 -5.028092
C 169.072081 1.396301 -5.547054
C 169.109514 1.607877 -6.933748
C 168.709307 0.620704 -7.854492
N 168.746390 0.825565 -9.247742
C 168.924832 -0.361892 -10.081235
C 169.373344 2.044412 -9.750271
C 168.225508 -0.579835 -7.298809
C 168.184371 -0.799528 -5.914055
C 167.467004 0.028545 -2.821237
C 166.180196 0.351320 -3.402317
C 165.272176 0.356918 -2.432158
C 165.934351 0.036828 -1.183430
N 167.259037 -0.142797 -1.480353
H 164.547062 -1.362863 2.577163
H 166.532408 -1.426788 4.425187
H 168.054893 0.213479 0.861786
H 168.310602 1.997565 4.936826
H 168.232188 2.311788 7.347074
H 168.591610 1.759850 10.907199
H 169.060133 2.587728 9.437442
H 167.410662 1.902589 9.595679
H 169.278060 -1.511068 9.951805
H 167.565465 -1.088790 9.653552
H 168.421635 -0.488355 11.080403
H 169.833830 -1.671374 7.879809
H 169.874021 -1.951972 5.454066
H 171.709724 0.390917 4.458913
H 173.467676 0.469656 2.592089
H 173.147668 -1.267287 -2.623789
H 171.162362 -1.259782 -4.474041
H 169.641608 0.249037 -0.851177
H 169.402330 2.176133 -4.863943
H 169.477183 2.574198 -7.260298
H 169.818104 -0.925267 -9.787830
H 168.046504 -1.014788 -10.040877
H 169.044100 -0.087386 -11.136042
H 170.440402 2.075155 -9.502785
H 169.284686 2.104961 -10.841170
H 168.876294 2.939422 -9.359556
H 167.852198 -1.380884 -7.926925
H 167.810390 -1.741053 -5.517502
H 165.985530 0.562327 -4.438764
H 164.227806 0.569429 -2.570078
C 179.468283 -0.036079 0.000209
C 180.262070 -0.386050 1.326569
C 179.754318 -1.001122 2.453274
C 180.791535 -1.037096 3.420108
C 181.902189 -0.449776 2.851241
N 181.591434 -0.126956 1.553982
C 183.292329 -0.182697 3.562814
C 183.281815 -0.001527 5.032479
C 182.831865 1.192280 5.593045
C 182.793751 1.356366 6.985823
C 183.183684 0.332636 7.868768
N 183.145633 0.476944 9.271106
C 182.670371 1.744119 9.817287
C 182.728926 -0.713531 10.012734
C 183.659337 -0.852156 7.274334
C 183.702020 -1.023169 5.883290
C 184.426949 -0.080950 2.821664
C 185.713558 0.219513 3.414911
C 186.621474 0.262516 2.445828
N 184.635066 -0.201526 1.475443
C 185.959332 -0.009554 1.185701
C 186.622922 -0.036079 0.000209
C 185.829123 -0.335187 -1.338554
C 186.336529 -0.909031 -2.487199
C 185.299617 -0.907863 -3.455023
C 184.189449 -0.340695 -2.864634
N 184.500092 -0.067295 -1.556071
C 182.799682 -0.045757 -3.565877
C 182.810655 0.187953 -5.028092
C 183.270020 1.396301 -5.547054
C 183.307453 1.607877 -6.933748
C 182.907247 0.620704 -7.854492
N 182.944330 0.825565 -9.247742
C 183.122771 -0.361892 -10.081235
C 183.571284 2.044412 -9.750271
C 182.423448 -0.579835 -7.298809
C 182.382311 -0.799528 -5.914055
C 181.664943 0.028545 -2.821237
C 180.378135 0.351320 -3.402317
C 179.470115 0.356918 -2.432158
C 180.132291 0.036828 -1.183430
N 181.456977 -0.142797 -1.480353
H 178.745001 -1.362863 2.577163
H 180.730348 -1.426788 4.425187
H 182.252832 0.213479 0.861786
H 182.508542 1.997565 4.936826
H 182.430127 2.311788 7.347074
H 182.789549 1.759850 10.907199
H 183.258072 2.587728 9.437442
H 181.608601 1.902589 9.595679
H 183.475999 -1.511068 9.951805
H 181.763404 -1.088790 9.653552
H 182.619575 -0.488355 11.080403
H 184.031769 -1.671374 7.879809
H 184.071960 -1.951972 5.454066
H 185.907663 0.390917 4.458913
H 187.665615 0.469656 2.592089
H 187.345607 -1.267287 -2.623789
H 185.360302 -1.259782 -4.474041
H 183.839547 0.249037 -0.851177
H 183.600269 2.176133 -4.863943
H 183.675123 2.574198 -7.260298
H 184.016043 -0.925267 -9.787830
H 182.244443 -1.014788 -10.040877
H 183.242040 -0.087386 -11.136042
H 184.638342 2.075155 -9.502785
H 183.482625 2.104961 -10.841170
H 183.074233 2.939422 -9.359556
H 182.050138 -1.380884 -7.926925
H 182.008329 -1.741053 -5.517502
H 180.183469 0.562327 -4.438764
H 178.425746 0.569429 -2.570078
C 193.666223 -0.036079 0.000209
C 194.460009 -0.386050 1.326569
C 193.952257 -1.001122 2.453274
C 194.989474 -1.037096 3.420108
C 196.100128 -0.449776 2.851241
N 195.789374 -0.126956 1.553982
C 197.490269 -0.182697 3.562814
C 197.479754 -0.001527 5.032479
C 197.029804 1.192280 5.593045
C 196.991690 1.356366 6.985823
C 197.381623 0.332636 7.868768
N 197.343572 0.476944 9.271106
C 196.868310 1.744119 9.817287
C 196.926866 -0.713531 10.012734
C 197.857277 -0.852156 7.274334
C 197.899959 -1.023169 5.883290
C 198.624888 -0.080950 2.821664
C 199.911498 0.219513 3.414911
C 200.819413 0.262516 2.445828
N 198.833005 -0.201526 1.475443
C 200.157271 -0.009554 1.185701
C 200.820861 -0.036079 0.000209
C 200.027063 -0.335187 -1.338554
C 200.534469 -0.909031 -2.487199
C 199.497557 -0.907863 -3.455023
C 198.387388 -0.340695 -2.864634
N 198.698032 -0.067295 -1.556071
C 196.997621 -0.045757 -3.565877
C 197.008594 0.187953 -5.028092
C 197.467960 1.396301 -5.547054
C 197.505393 1.607877 -6.933748
C 197.105186 0.620704 -7.854492
N 197.142269 0.825565 -9.247742
C 197.320710 -0.361892 -10.081235
C 197.769223 2.044412 -9.750271
C 196.621387 -0.579835 -7.298809
C 196.580250 -0.799528 -5.914055
C 195.862883 0.028545 -2.821237
C 194.576075 0.351320 -3.402317
C 193.668054 0.356918 -2.432158
C 194.330230 0.036828 -1.183430
N 195.654916 -0.142797 -1.480353
H 192.942940 -1.362863 2.577163
H 194.928287 -1.426788 4.425187
H 196.450771 0.213479 0.861786
H 196.706481 1.997565 4.936826
H 196.628067 2.311788 7.347074
H 196.987489 1.759850 10.907199
H 197.456011 2.587728 9.437442
H 195.806541 1.902589 9.595679
H 197.673939 -1.511068 9.951805
H 195.961344 -1.088790 9.653552
H 196.817514 -0.488355 11.080403
H 198.229709 -1.671374 7.879809
H 198.269900 -1.951972 5.454066
H 200.105603 0.390917 4.458913
H 201.863555 0.469656 2.592089
H 201.543546 -1.267287 -2.623789
H 199.558241 -1.259782 -4.474041
H 198.037486 0.249037 -0.851177
H 197.798208 2.176133 -4.863943
H 197.873062 2.574198 -7.260298
H 198.213983 -0.925267 -9.787830
H 196.442383 -1.014788 -10.040877
H 197.439979 -0.087386 -11.136042
H 198.836281 2.075155 -9.502785
H 197.680565 2.104961 -10.841170
H 197.272173 2.939422 -9.359556
H 196.248077 -1.380884 -7.926925
H 196.206268 -1.741053 -5.517502
H 194.381409 0.562327 -4.438764
H 192.623685 0.569429 -2.570078
C 207.864162 -0.036079 0.000209
C 208.657949 -0.386050 1.326569
C 208.150197 -1.001122 2.453274
C 209.187413 -1.037096 3.420108
C 210.298067 -0.449776 2.851241
N 209.987313 -0.126956 1.553982
C 211.688208 -0.182697 3.562814
C 211.677694 -0.001527 5.032479
C 211.227744 1.192280 5.593045
C 211.189630 1.356366 6.985823
C 211.579563 0.332636 7.868768
N 211.541512 0.476944 9.271106
C 211.066250 1.744119 9.817287
C 211.124805 -0.713531 10.012734
C 212.055216 -0.852156 7.274334
C 212.097899 -1.023169 5.883290
C 212.822827 -0.080950 2.821664
C 214.109437 0.219513 3.414911
C 215.017352 0.262516 2.445828
N 213.030945 -0.201526 1.475443
C 214.355210 -0.009554 1.185701
C 215.018800 -0.036079 0.000209
C 214.225002 -0.335187 -1.338554
C 214.732408 -0.909031 -2.487199
C 213.695496 -0.907863 -3.455023
C 212.585328 -0.340695 -2.864634
N 212.895971 -0.067295 -1.556071
C 211.195560 -0.045757 -3.565877
C 211.206534 0.187953 -5.028092
C 211.665899 1.396301 -5.547054
C 211.703332 1.607877 -6.933748
C 211.303125 0.620704 -7.854492
N 211.340208 0.825565 -9.247742
C 211.518650 -0.361892 -10.081235
C 211.967162 2.044412 -9.750271
C 210.819326 -0.579835 -7.298809
C 210.778190 -0.799528 -5.914055
C 210.060822 0.028545 -2.821237
C 208.774014 0.351320 -3.402317
C 207.865994 0.356918 -2.432158
C 208.528169 0.036828 -1.183430
N 209.852855 -0.142797 -1.480353
H 207.140880 -1.362863 2.577163
H 209.126226 -1.426788 4.425187
H 210.648711 0.213479 0.861786
H 210.904421 1.997565 4.936826
H 210.826006 2.311788 7.347074
H 211.185428 1.759850 10.907199
H 211.653951 2.587728 9.437442
H 210.004480 1.902589 9.595679
H 211.871878 -1.511068 9.951805
H 210.159283 -1.088790 9.653552
H 211.015454 -0.488355 11.080403
H 212.427648 -1.671374 7.879809
H 212.467839 -1.951972 5.454066
H 214.303542 0.390917 4.458913
H 216.061494 0.469656 2.592089
H 215.741486 -1.267287 -2.623789
H 213.756181 -1.259782 -4.474041
H 212.235426 0.249037 -0.851177
H 211.996148 2.176133 -4.863943
H 212.071001 2.574198 -7.260298
H 212.411922 -0.925267 -9.787830
H 210.640322 -1.014788 -10.040877
H 211.637918 -0.087386 -11.136042
H 213.034221 2.075155 -9.502785
H 211.878504 2.104961 -10.841170
H 211.470112 2.939422 -9.359556
H 210.446016 -1.380884 -7.926925
H 210.404208 -1.741053 -5.517502
H 208.579348 0.562327 -4.438764
H 206.821624 0.569429 -2.570078
