 xtb: 6.5.1 (b24c23e)
          07302201563D

225254  0     0  0            999 V2000
   35.7309    0.3322   -0.5442 Co  0  0  0  0  0  0  0  0  0  0  0  0
   32.8017    1.1501   -1.9263 C   0  0  0  0  0  0  0  0  0  0  0  0
   33.3018    1.9693   -0.9336 C   0  0  0  0  0  0  0  0  0  0  0  0
   32.6138    3.1136   -0.4160 C   0  0  0  0  0  0  0  0  0  0  0  0
   33.3025    3.5201    0.6782 C   0  0  0  0  0  0  0  0  0  0  0  0
   34.4468    2.6641    0.7887 C   0  0  0  0  0  0  0  0  0  0  0  0
   34.4282    1.7123   -0.1945 N   0  0  0  0  0  0  0  0  0  0  0  0
   35.4864    2.8660    1.6882 C   0  0  0  0  0  0  0  0  0  0  0  0
   35.3452    3.9188    2.7311 C   0  0  0  0  0  0  0  0  0  0  0  0
   35.7195    5.2385    2.4596 C   0  0  0  0  0  0  0  0  0  0  0  0
   36.2741    5.6053    1.1088 C   0  0  0  0  0  0  0  0  0  0  0  0
   35.5756    6.2043    3.4487 C   0  0  0  0  0  0  0  0  0  0  0  0
   35.0653    5.8769    4.7009 C   0  0  0  0  0  0  0  0  0  0  0  0
   34.9329    6.9309    5.7667 C   0  0  0  0  0  0  0  0  0  0  0  0
   34.6990    4.5603    4.9599 C   0  0  0  0  0  0  0  0  0  0  0  0
   34.8337    3.5777    3.9860 C   0  0  0  0  0  0  0  0  0  0  0  0
   34.4359    2.1539    4.2697 C   0  0  0  0  0  0  0  0  0  0  0  0
   36.6981    2.2078    1.5554 C   0  0  0  0  0  0  0  0  0  0  0  0
   37.8959    2.5926    2.2387 C   0  0  0  0  0  0  0  0  0  0  0  0
   38.9095    1.8938    1.6703 C   0  0  0  0  0  0  0  0  0  0  0  0
   36.9725    1.2242    0.6334 N   0  0  0  0  0  0  0  0  0  0  0  0
   38.3211    1.0334    0.6931 C   0  0  0  0  0  0  0  0  0  0  0  0
   39.0297    0.0398    0.0027 C   0  0  0  0  0  0  0  0  0  0  0  0
   38.3563   -1.0179   -0.6249 C   0  0  0  0  0  0  0  0  0  0  0  0
   38.9814   -2.2518   -0.9840 C   0  0  0  0  0  0  0  0  0  0  0  0
   37.9917   -3.0951   -1.3693 C   0  0  0  0  0  0  0  0  0  0  0  0
   36.7709   -2.3496   -1.3112 C   0  0  0  0  0  0  0  0  0  0  0  0
   37.0091   -1.0857   -0.8239 N   0  0  0  0  0  0  0  0  0  0  0  0
   35.5656   -2.7957   -1.8288 C   0  0  0  0  0  0  0  0  0  0  0  0
   35.4616   -4.2013   -2.3080 C   0  0  0  0  0  0  0  0  0  0  0  0
   35.8160   -4.5300   -3.6201 C   0  0  0  0  0  0  0  0  0  0  0  0
   36.3057   -3.4622   -4.5619 C   0  0  0  0  0  0  0  0  0  0  0  0
   35.7151   -5.8505   -4.0423 C   0  0  0  0  0  0  0  0  0  0  0  0
   35.2684   -6.8462   -3.1795 C   0  0  0  0  0  0  0  0  0  0  0  0
   35.1458   -8.2681   -3.6566 C   0  0  0  0  0  0  0  0  0  0  0  0
   34.9178   -6.5066   -1.8769 C   0  0  0  0  0  0  0  0  0  0  0  0
   35.0112   -5.1930   -1.4326 C   0  0  0  0  0  0  0  0  0  0  0  0
   34.6363   -4.8299   -0.0206 C   0  0  0  0  0  0  0  0  0  0  0  0
   34.4981   -1.9307   -2.0340 C   0  0  0  0  0  0  0  0  0  0  0  0
   33.3528   -2.2455   -2.8364 C   0  0  0  0  0  0  0  0  0  0  0  0
   32.6404   -1.1002   -2.9679 C   0  0  0  0  0  0  0  0  0  0  0  0
   33.3151   -0.1042   -2.1912 C   0  0  0  0  0  0  0  0  0  0  0  0
   34.4534   -0.6235   -1.6298 N   0  0  0  0  0  0  0  0  0  0  0  0
   31.8926    1.4520   -2.4335 H   0  0  0  0  0  0  0  0  0  0  0  0
   31.7034    3.5183   -0.8289 H   0  0  0  0  0  0  0  0  0  0  0  0
   33.0831    4.3375    1.3462 H   0  0  0  0  0  0  0  0  0  0  0  0
   35.5640    5.3452    0.3218 H   0  0  0  0  0  0  0  0  0  0  0  0
   37.1991    5.0579    0.9175 H   0  0  0  0  0  0  0  0  0  0  0  0
   36.4834    6.6730    1.0519 H   0  0  0  0  0  0  0  0  0  0  0  0
   35.8643    7.2291    3.2386 H   0  0  0  0  0  0  0  0  0  0  0  0
   34.1481    6.6698    6.4770 H   0  0  0  0  0  0  0  0  0  0  0  0
   35.8724    7.0238    6.3165 H   0  0  0  0  0  0  0  0  0  0  0  0
   34.7018    7.9011    5.3259 H   0  0  0  0  0  0  0  0  0  0  0  0
   34.3008    4.2949    5.9337 H   0  0  0  0  0  0  0  0  0  0  0  0
   35.2946    1.4905    4.1499 H   0  0  0  0  0  0  0  0  0  0  0  0
   34.0530    2.0508    5.2845 H   0  0  0  0  0  0  0  0  0  0  0  0
   33.6643    1.8294    3.5690 H   0  0  0  0  0  0  0  0  0  0  0  0
   37.9442    3.3259    3.0275 H   0  0  0  0  0  0  0  0  0  0  0  0
   39.9596    1.9199    1.9112 H   0  0  0  0  0  0  0  0  0  0  0  0
   40.0375   -2.4508   -0.9027 H   0  0  0  0  0  0  0  0  0  0  0  0
   38.0702   -4.1206   -1.6923 H   0  0  0  0  0  0  0  0  0  0  0  0
   35.5532   -2.6794   -4.6739 H   0  0  0  0  0  0  0  0  0  0  0  0
   36.5230   -3.8807   -5.5441 H   0  0  0  0  0  0  0  0  0  0  0  0
   37.2135   -2.9985   -4.1711 H   0  0  0  0  0  0  0  0  0  0  0  0
   35.9916   -6.1069   -5.0598 H   0  0  0  0  0  0  0  0  0  0  0  0
   35.8891   -8.4857   -4.4240 H   0  0  0  0  0  0  0  0  0  0  0  0
   35.2752   -8.9679   -2.8308 H   0  0  0  0  0  0  0  0  0  0  0  0
   34.1552   -8.4310   -4.0879 H   0  0  0  0  0  0  0  0  0  0  0  0
   34.5689   -7.2764   -1.1964 H   0  0  0  0  0  0  0  0  0  0  0  0
   33.8434   -4.0797   -0.0200 H   0  0  0  0  0  0  0  0  0  0  0  0
   35.4962   -4.4058    0.5014 H   0  0  0  0  0  0  0  0  0  0  0  0
   34.2909   -5.7053    0.5286 H   0  0  0  0  0  0  0  0  0  0  0  0
   33.1496   -3.2169   -3.2579 H   0  0  0  0  0  0  0  0  0  0  0  0
   31.7225   -0.9350   -3.5096 H   0  0  0  0  0  0  0  0  0  0  0  0
   57.2069    0.2737   -0.5266 Co  0  0  0  0  0  0  0  0  0  0  0  0
   60.2250    1.1582   -1.6844 C   0  0  0  0  0  0  0  0  0  0  0  0
   59.6776   -0.0249   -2.1389 C   0  0  0  0  0  0  0  0  0  0  0  0
   60.3483   -0.9319   -3.0209 C   0  0  0  0  0  0  0  0  0  0  0  0
   59.5723   -2.0395   -3.1042 C   0  0  0  0  0  0  0  0  0  0  0  0
   58.3974   -1.7808   -2.3246 C   0  0  0  0  0  0  0  0  0  0  0  0
   58.4850   -0.5552   -1.7192 N   0  0  0  0  0  0  0  0  0  0  0  0
   57.2729   -2.5949   -2.3277 C   0  0  0  0  0  0  0  0  0  0  0  0
   57.3323   -3.9088   -3.0251 C   0  0  0  0  0  0  0  0  0  0  0  0
   57.0396   -4.0033   -4.3894 C   0  0  0  0  0  0  0  0  0  0  0  0
   56.6636   -2.7713   -5.1689 C   0  0  0  0  0  0  0  0  0  0  0  0
   57.1004   -5.2429   -5.0143 C   0  0  0  0  0  0  0  0  0  0  0  0
   57.4485   -6.3877   -4.3031 C   0  0  0  0  0  0  0  0  0  0  0  0
   57.4917   -7.7226   -4.9965 C   0  0  0  0  0  0  0  0  0  0  0  0
   57.7382   -6.2809   -2.9476 C   0  0  0  0  0  0  0  0  0  0  0  0
   57.6834   -5.0511   -2.3013 C   0  0  0  0  0  0  0  0  0  0  0  0
   57.9992   -4.9392   -0.8337 C   0  0  0  0  0  0  0  0  0  0  0  0
   56.0648   -2.1671   -1.8008 C   0  0  0  0  0  0  0  0  0  0  0  0
   54.8117   -2.8160   -2.0427 C   0  0  0  0  0  0  0  0  0  0  0  0
   53.8504   -2.0151   -1.5206 C   0  0  0  0  0  0  0  0  0  0  0  0
   55.8717   -1.0079   -1.0873 N   0  0  0  0  0  0  0  0  0  0  0  0
   54.5229   -0.9150   -0.9023 C   0  0  0  0  0  0  0  0  0  0  0  0
   53.8833    0.0036   -0.0617 C   0  0  0  0  0  0  0  0  0  0  0  0
   54.6131    0.8337    0.7973 C   0  0  0  0  0  0  0  0  0  0  0  0
   54.0372    1.5409    1.8974 C   0  0  0  0  0  0  0  0  0  0  0  0
   55.0603    2.1366    2.5578 C   0  0  0  0  0  0  0  0  0  0  0  0
   56.2518    1.8449    1.8187 C   0  0  0  0  0  0  0  0  0  0  0  0
   55.9645    1.0147    0.7597 N   0  0  0  0  0  0  0  0  0  0  0  0
   57.4694    2.4642    2.0461 C   0  0  0  0  0  0  0  0  0  0  0  0
   57.6130    3.3628    3.2245 C   0  0  0  0  0  0  0  0  0  0  0  0
   57.2621    4.7132    3.1294 C   0  0  0  0  0  0  0  0  0  0  0  0
   56.7360    5.2680    1.8324 C   0  0  0  0  0  0  0  0  0  0  0  0
   57.4007    5.5326    4.2432 C   0  0  0  0  0  0  0  0  0  0  0  0
   57.8811    5.0285    5.4480 C   0  0  0  0  0  0  0  0  0  0  0  0
   58.0397    5.9351    6.6385 C   0  0  0  0  0  0  0  0  0  0  0  0
   58.2279    3.6843    5.5298 C   0  0  0  0  0  0  0  0  0  0  0  0
   58.0980    2.8459    4.4285 C   0  0  0  0  0  0  0  0  0  0  0  0
   58.4701    1.3903    4.5211 C   0  0  0  0  0  0  0  0  0  0  0  0
   58.5183    2.3677    1.1410 C   0  0  0  0  0  0  0  0  0  0  0  0
   59.6850    3.1996    1.1747 C   0  0  0  0  0  0  0  0  0  0  0  0
   60.4026    2.9124    0.0619 C   0  0  0  0  0  0  0  0  0  0  0  0
   59.7047    1.8628   -0.6179 C   0  0  0  0  0  0  0  0  0  0  0  0
   58.5437    1.5507    0.0430 N   0  0  0  0  0  0  0  0  0  0  0  0
   61.1677    1.4855   -2.1072 H   0  0  0  0  0  0  0  0  0  0  0  0
   61.3040   -0.7410   -3.4828 H   0  0  0  0  0  0  0  0  0  0  0  0
   59.7501   -2.9462   -3.6599 H   0  0  0  0  0  0  0  0  0  0  0  0
   57.4686   -2.0352   -5.1276 H   0  0  0  0  0  0  0  0  0  0  0  0
   55.7692   -2.3113   -4.7447 H   0  0  0  0  0  0  0  0  0  0  0  0
   56.4682   -3.0166   -6.2124 H   0  0  0  0  0  0  0  0  0  0  0  0
   56.8738   -5.3184   -6.0728 H   0  0  0  0  0  0  0  0  0  0  0  0
   58.0228   -8.4591   -4.3935 H   0  0  0  0  0  0  0  0  0  0  0  0
   56.4764   -8.0870   -5.1680 H   0  0  0  0  0  0  0  0  0  0  0  0
   57.9865   -7.6375   -5.9649 H   0  0  0  0  0  0  0  0  0  0  0  0
   58.0115   -7.1671   -2.3843 H   0  0  0  0  0  0  0  0  0  0  0  0
   57.1454   -4.5264   -0.2931 H   0  0  0  0  0  0  0  0  0  0  0  0
   58.2429   -5.9138   -0.4117 H   0  0  0  0  0  0  0  0  0  0  0  0
   58.8468   -4.2687   -0.6793 H   0  0  0  0  0  0  0  0  0  0  0  0
   54.6963   -3.7510   -2.5669 H   0  0  0  0  0  0  0  0  0  0  0  0
   52.7828   -2.1651   -1.5106 H   0  0  0  0  0  0  0  0  0  0  0  0
   52.9865    1.5485    2.1384 H   0  0  0  0  0  0  0  0  0  0  0  0
   55.0235    2.7458    3.4465 H   0  0  0  0  0  0  0  0  0  0  0  0
   57.4611    5.1151    1.0310 H   0  0  0  0  0  0  0  0  0  0  0  0
   56.5322    6.3348    1.9204 H   0  0  0  0  0  0  0  0  0  0  0  0
   55.8131    4.7585    1.5486 H   0  0  0  0  0  0  0  0  0  0  0  0
   57.1278    6.5805    4.1715 H   0  0  0  0  0  0  0  0  0  0  0  0
   57.2260    6.6598    6.6837 H   0  0  0  0  0  0  0  0  0  0  0  0
   58.0539    5.3623    7.5659 H   0  0  0  0  0  0  0  0  0  0  0  0
   58.9796    6.4869    6.5635 H   0  0  0  0  0  0  0  0  0  0  0  0
   58.6030    3.2818    6.4650 H   0  0  0  0  0  0  0  0  0  0  0  0
   59.2459    1.1507    3.7913 H   0  0  0  0  0  0  0  0  0  0  0  0
   57.6031    0.7638    4.3028 H   0  0  0  0  0  0  0  0  0  0  0  0
   58.8379    1.1440    5.5167 H   0  0  0  0  0  0  0  0  0  0  0  0
   59.9006    3.9197    1.9478 H   0  0  0  0  0  0  0  0  0  0  0  0
   61.3377    3.3375   -0.2669 H   0  0  0  0  0  0  0  0  0  0  0  0
   40.4305    0.0358    0.0431 C   0  0  0  0  0  0  0  0  0  0  0  0
   41.6495    0.0614    0.0283 C   0  0  0  0  0  0  0  0  0  0  0  0
   51.2637    0.0160    0.0227 C   0  0  0  0  0  0  0  0  0  0  0  0
   52.4816    0.0039    0.0039 C   0  0  0  0  0  0  0  0  0  0  0  0
   46.4569    0.0715    0.0015 Co  0  0  0  0  0  0  0  0  0  0  0  0
   43.0515    0.0719    0.0137 C   0  0  0  0  0  0  0  0  0  0  0  0
   43.7396    1.0007    0.8039 C   0  0  0  0  0  0  0  0  0  0  0  0
   43.0962    1.9876    1.6116 C   0  0  0  0  0  0  0  0  0  0  0  0
   44.0576    2.5436    2.3890 C   0  0  0  0  0  0  0  0  0  0  0  0
   45.2850    1.8909    2.0506 C   0  0  0  0  0  0  0  0  0  0  0  0
   45.0855    0.9868    1.0330 N   0  0  0  0  0  0  0  0  0  0  0  0
   46.4613    2.0358    2.7681 C   0  0  0  0  0  0  0  0  0  0  0  0
   46.4600    2.8944    3.9844 C   0  0  0  0  0  0  0  0  0  0  0  0
   46.9021    4.2181    3.9051 C   0  0  0  0  0  0  0  0  0  0  0  0
   47.3799    4.7754    2.5907 C   0  0  0  0  0  0  0  0  0  0  0  0
   46.8938    5.0101    5.0475 C   0  0  0  0  0  0  0  0  0  0  0  0
   46.4536    4.5034    6.2657 C   0  0  0  0  0  0  0  0  0  0  0  0
   46.4681    5.3629    7.5008 C   0  0  0  0  0  0  0  0  0  0  0  0
   46.0176    3.1839    6.3327 C   0  0  0  0  0  0  0  0  0  0  0  0
   46.0147    2.3741    5.2033 C   0  0  0  0  0  0  0  0  0  0  0  0
   45.5361    0.9490    5.2852 C   0  0  0  0  0  0  0  0  0  0  0  0
   47.6381    1.4069    2.3938 C   0  0  0  0  0  0  0  0  0  0  0  0
   48.8688    1.5210    3.1150 C   0  0  0  0  0  0  0  0  0  0  0  0
   49.8277    0.9628    2.3360 C   0  0  0  0  0  0  0  0  0  0  0  0
   47.8324    0.7324    1.2111 N   0  0  0  0  0  0  0  0  0  0  0  0
   49.1783    0.5103    1.1467 C   0  0  0  0  0  0  0  0  0  0  0  0
   49.8603    0.0279    0.0253 C   0  0  0  0  0  0  0  0  0  0  0  0
   49.1802   -0.4356   -1.1059 C   0  0  0  0  0  0  0  0  0  0  0  0
   49.8334   -0.8881   -2.2935 C   0  0  0  0  0  0  0  0  0  0  0  0
   48.8697   -1.4076   -3.0933 C   0  0  0  0  0  0  0  0  0  0  0  0
   47.6335   -1.2739   -2.3850 C   0  0  0  0  0  0  0  0  0  0  0  0
   47.8307   -0.6257   -1.1881 N   0  0  0  0  0  0  0  0  0  0  0  0
   46.4460   -1.8666   -2.7835 C   0  0  0  0  0  0  0  0  0  0  0  0
   46.4363   -2.6958   -4.0198 C   0  0  0  0  0  0  0  0  0  0  0  0
   45.9861   -2.1435   -5.2228 C   0  0  0  0  0  0  0  0  0  0  0  0
   45.5075   -0.7167   -5.2658 C   0  0  0  0  0  0  0  0  0  0  0  0
   45.9849   -2.9231   -6.3733 C   0  0  0  0  0  0  0  0  0  0  0  0
   46.4213   -4.2437   -6.3431 C   0  0  0  0  0  0  0  0  0  0  0  0
   46.4343   -5.0695   -7.6010 C   0  0  0  0  0  0  0  0  0  0  0  0
   46.8644   -4.7830   -5.1400 C   0  0  0  0  0  0  0  0  0  0  0  0
   46.8768   -4.0218   -3.9770 C   0  0  0  0  0  0  0  0  0  0  0  0
   47.3580   -4.6155   -2.6798 C   0  0  0  0  0  0  0  0  0  0  0  0
   45.2675   -1.7146   -2.0706 C   0  0  0  0  0  0  0  0  0  0  0  0
   44.0327   -2.3423   -2.4285 C   0  0  0  0  0  0  0  0  0  0  0  0
   43.0776   -1.7988   -1.6348 C   0  0  0  0  0  0  0  0  0  0  0  0
   43.7320   -0.8432   -0.7985 C   0  0  0  0  0  0  0  0  0  0  0  0
   45.0780   -0.8355   -1.0298 N   0  0  0  0  0  0  0  0  0  0  0  0
   42.0422    2.2102    1.5835 H   0  0  0  0  0  0  0  0  0  0  0  0
   43.9592    3.3165    3.1341 H   0  0  0  0  0  0  0  0  0  0  0  0
   48.2967    4.2713    2.2784 H   0  0  0  0  0  0  0  0  0  0  0  0
   47.5812    5.8431    2.6713 H   0  0  0  0  0  0  0  0  0  0  0  0
   46.6302    4.6158    1.8140 H   0  0  0  0  0  0  0  0  0  0  0  0
   47.2341    6.0386    4.9851 H   0  0  0  0  0  0  0  0  0  0  0  0
   47.4053    5.2179    8.0433 H   0  0  0  0  0  0  0  0  0  0  0  0
   45.6471    5.0977    8.1676 H   0  0  0  0  0  0  0  0  0  0  0  0
   46.3857    6.4186    7.2415 H   0  0  0  0  0  0  0  0  0  0  0  0
   45.6730    2.7801    7.2791 H   0  0  0  0  0  0  0  0  0  0  0  0
   44.6205    0.8247    4.7034 H   0  0  0  0  0  0  0  0  0  0  0  0
   46.2863    0.2704    4.8758 H   0  0  0  0  0  0  0  0  0  0  0  0
   45.3320    0.6662    6.3175 H   0  0  0  0  0  0  0  0  0  0  0  0
   48.9708    1.9812    4.0845 H   0  0  0  0  0  0  0  0  0  0  0  0
   50.8834    0.8669    2.5317 H   0  0  0  0  0  0  0  0  0  0  0  0
   50.8937   -0.8172   -2.4753 H   0  0  0  0  0  0  0  0  0  0  0  0
   48.9716   -1.8527   -4.0699 H   0  0  0  0  0  0  0  0  0  0  0  0
   44.5866   -0.6105   -4.6887 H   0  0  0  0  0  0  0  0  0  0  0  0
   45.3119   -0.4031   -6.2908 H   0  0  0  0  0  0  0  0  0  0  0  0
   46.2534   -0.0504   -4.8295 H   0  0  0  0  0  0  0  0  0  0  0  0
   45.6372   -2.4941   -7.3074 H   0  0  0  0  0  0  0  0  0  0  0  0
   46.3322   -6.1303   -7.3713 H   0  0  0  0  0  0  0  0  0  0  0  0
   47.3795   -4.9255   -8.1297 H   0  0  0  0  0  0  0  0  0  0  0  0
   45.6247   -4.7729   -8.2684 H   0  0  0  0  0  0  0  0  0  0  0  0
   47.2041   -5.8130   -5.1062 H   0  0  0  0  0  0  0  0  0  0  0  0
   47.5323   -5.6861   -2.7834 H   0  0  0  0  0  0  0  0  0  0  0  0
   46.6232   -4.4527   -1.8896 H   0  0  0  0  0  0  0  0  0  0  0  0
   48.2913   -4.1403   -2.3709 H   0  0  0  0  0  0  0  0  0  0  0  0
   43.9253   -3.0914   -3.1962 H   0  0  0  0  0  0  0  0  0  0  0  0
   42.0196   -2.0031   -1.6213 H   0  0  0  0  0  0  0  0  0  0  0  0
  2  3  4  0  0  0  0
  3  4  1  0  0  0  0
  4  5  2  0  0  0  0
  5  6  4  0  0  0  0
  1  7  1  0  0  0  0
  3  7  4  0  0  0  0
  6  7  4  0  0  0  0
  6  8  4  0  0  0  0
  8  9  1  0  0  0  0
  9 10  4  0  0  0  0
 10 11  1  0  0  0  0
 10 12  4  0  0  0  0
 12 13  4  0  0  0  0
 13 14  1  0  0  0  0
 13 15  4  0  0  0  0
  9 16  4  0  0  0  0
 15 16  4  0  0  0  0
 16 17  1  0  0  0  0
  8 18  4  0  0  0  0
 18 19  4  0  0  0  0
 19 20  2  0  0  0  0
  1 21  1  0  0  0  0
 18 21  4  0  0  0  0
 20 22  4  0  0  0  0
 21 22  4  0  0  0  0
 22 23  4  0  0  0  0
 23 24  4  0  0  0  0
 24 25  4  0  0  0  0
 25 26  2  0  0  0  0
 26 27  4  0  0  0  0
  1 28  1  0  0  0  0
 24 28  4  0  0  0  0
 27 28  4  0  0  0  0
 27 29  4  0  0  0  0
 29 30  1  0  0  0  0
 30 31  4  0  0  0  0
 31 32  1  0  0  0  0
 31 33  4  0  0  0  0
 33 34  4  0  0  0  0
 34 35  1  0  0  0  0
 34 36  4  0  0  0  0
 30 37  4  0  0  0  0
 36 37  4  0  0  0  0
 37 38  1  0  0  0  0
 29 39  4  0  0  0  0
 39 40  4  0  0  0  0
 40 41  2  0  0  0  0
  2 42  4  0  0  0  0
 41 42  1  0  0  0  0
  1 43  1  0  0  0  0
 39 43  4  0  0  0  0
 42 43  4  0  0  0  0
  2 44  1  0  0  0  0
  4 45  1  0  0  0  0
  5 46  1  0  0  0  0
 11 47  1  0  0  0  0
 11 48  1  0  0  0  0
 11 49  1  0  0  0  0
 12 50  1  0  0  0  0
 14 51  1  0  0  0  0
 14 52  1  0  0  0  0
 14 53  1  0  0  0  0
 15 54  1  0  0  0  0
 17 55  1  0  0  0  0
 17 56  1  0  0  0  0
 17 57  1  0  0  0  0
 19 58  1  0  0  0  0
 20 59  1  0  0  0  0
 25 60  1  0  0  0  0
 26 61  1  0  0  0  0
 32 62  1  0  0  0  0
 32 63  1  0  0  0  0
 32 64  1  0  0  0  0
 33 65  1  0  0  0  0
 35 66  1  0  0  0  0
 35 67  1  0  0  0  0
 35 68  1  0  0  0  0
 36 69  1  0  0  0  0
 38 70  1  0  0  0  0
 38 71  1  0  0  0  0
 38 72  1  0  0  0  0
 40 73  1  0  0  0  0
 41 74  1  0  0  0  0
 76 77  4  0  0  0  0
 77 78  1  0  0  0  0
 78 79  2  0  0  0  0
 79 80  4  0  0  0  0
 75 81  1  0  0  0  0
 77 81  4  0  0  0  0
 80 81  4  0  0  0  0
 80 82  4  0  0  0  0
 82 83  1  0  0  0  0
 83 84  4  0  0  0  0
 84 85  1  0  0  0  0
 84 86  4  0  0  0  0
 86 87  4  0  0  0  0
 87 88  1  0  0  0  0
 87 89  4  0  0  0  0
 83 90  4  0  0  0  0
 89 90  4  0  0  0  0
 90 91  1  0  0  0  0
 82 92  4  0  0  0  0
 92 93  4  0  0  0  0
 93 94  2  0  0  0  0
 75 95  1  0  0  0  0
 92 95  4  0  0  0  0
 94 96  4  0  0  0  0
 95 96  4  0  0  0  0
 96 97  4  0  0  0  0
 97 98  4  0  0  0  0
 98 99  4  0  0  0  0
 99100  2  0  0  0  0
100101  4  0  0  0  0
 75102  1  0  0  0  0
 98102  4  0  0  0  0
101102  4  0  0  0  0
101103  4  0  0  0  0
103104  1  0  0  0  0
104105  4  0  0  0  0
105106  1  0  0  0  0
105107  4  0  0  0  0
107108  4  0  0  0  0
108109  1  0  0  0  0
108110  4  0  0  0  0
104111  4  0  0  0  0
110111  4  0  0  0  0
111112  1  0  0  0  0
103113  4  0  0  0  0
113114  4  0  0  0  0
114115  2  0  0  0  0
 76116  4  0  0  0  0
115116  1  0  0  0  0
 75117  1  0  0  0  0
113117  4  0  0  0  0
116117  4  0  0  0  0
 76118  1  0  0  0  0
 78119  1  0  0  0  0
 79120  1  0  0  0  0
 85121  1  0  0  0  0
 85122  1  0  0  0  0
 85123  1  0  0  0  0
 86124  1  0  0  0  0
 88125  1  0  0  0  0
 88126  1  0  0  0  0
 88127  1  0  0  0  0
 89128  1  0  0  0  0
 91129  1  0  0  0  0
 91130  1  0  0  0  0
 91131  1  0  0  0  0
 93132  1  0  0  0  0
 94133  1  0  0  0  0
 99134  1  0  0  0  0
100135  1  0  0  0  0
106136  1  0  0  0  0
106137  1  0  0  0  0
106138  1  0  0  0  0
107139  1  0  0  0  0
109140  1  0  0  0  0
109141  1  0  0  0  0
109142  1  0  0  0  0
110143  1  0  0  0  0
112144  1  0  0  0  0
112145  1  0  0  0  0
112146  1  0  0  0  0
114147  1  0  0  0  0
115148  1  0  0  0  0
 23149  4  0  0  0  0
149150  3  0  0  0  0
 97152  4  0  0  0  0
151152  3  0  0  0  0
150154  4  0  0  0  0
154155  4  0  0  0  0
155156  4  0  0  0  0
156157  2  0  0  0  0
157158  4  0  0  0  0
153159  1  0  0  0  0
155159  4  0  0  0  0
158159  4  0  0  0  0
158160  4  0  0  0  0
160161  1  0  0  0  0
161162  4  0  0  0  0
162163  1  0  0  0  0
162164  4  0  0  0  0
164165  4  0  0  0  0
165166  1  0  0  0  0
165167  4  0  0  0  0
161168  4  0  0  0  0
167168  4  0  0  0  0
168169  1  0  0  0  0
160170  4  0  0  0  0
170171  4  0  0  0  0
171172  2  0  0  0  0
153173  1  0  0  0  0
170173  4  0  0  0  0
172174  4  0  0  0  0
173174  4  0  0  0  0
151175  4  0  0  0  0
174175  4  0  0  0  0
175176  4  0  0  0  0
176177  4  0  0  0  0
177178  2  0  0  0  0
178179  4  0  0  0  0
153180  1  0  0  0  0
176180  4  0  0  0  0
179180  4  0  0  0  0
179181  4  0  0  0  0
181182  1  0  0  0  0
182183  4  0  0  0  0
183184  1  0  0  0  0
183185  4  0  0  0  0
185186  4  0  0  0  0
186187  1  0  0  0  0
186188  4  0  0  0  0
182189  4  0  0  0  0
188189  4  0  0  0  0
189190  1  0  0  0  0
181191  4  0  0  0  0
191192  4  0  0  0  0
192193  2  0  0  0  0
154194  4  0  0  0  0
193194  4  0  0  0  0
153195  1  0  0  0  0
191195  4  0  0  0  0
194195  4  0  0  0  0
156196  1  0  0  0  0
157197  1  0  0  0  0
163198  1  0  0  0  0
163199  1  0  0  0  0
163200  1  0  0  0  0
164201  1  0  0  0  0
166202  1  0  0  0  0
166203  1  0  0  0  0
166204  1  0  0  0  0
167205  1  0  0  0  0
169206  1  0  0  0  0
169207  1  0  0  0  0
169208  1  0  0  0  0
171209  1  0  0  0  0
172210  1  0  0  0  0
177211  1  0  0  0  0
178212  1  0  0  0  0
184213  1  0  0  0  0
184214  1  0  0  0  0
184215  1  0  0  0  0
185216  1  0  0  0  0
187217  1  0  0  0  0
187218  1  0  0  0  0
187219  1  0  0  0  0
188220  1  0  0  0  0
190221  1  0  0  0  0
190222  1  0  0  0  0
190223  1  0  0  0  0
192224  1  0  0  0  0
193225  1  0  0  0  0
M  END
