 xtb: 6.5.1 (b24c23e)
          07292222513D

270309  0     0  0            999 V2000
   46.3310   -0.0872   -0.0056 Fe  0  0  0  0  0  0  0  0  0  0  0  0
   42.9429   -0.1418    0.0231 C   0  0  0  0  0  0  0  0  0  0  0  0
   43.6021   -0.3064    1.2237 C   0  0  0  0  0  0  0  0  0  0  0  0
   42.9331   -0.5140    2.4726 C   0  0  0  0  0  0  0  0  0  0  0  0
   43.8894   -0.5102    3.4304 C   0  0  0  0  0  0  0  0  0  0  0  0
   45.1439   -0.3096    2.7639 C   0  0  0  0  0  0  0  0  0  0  0  0
   44.9551   -0.1993    1.4124 N   0  0  0  0  0  0  0  0  0  0  0  0
   46.3559   -0.1401    3.4228 C   0  0  0  0  0  0  0  0  0  0  0  0
   47.5563    0.0614    2.7563 C   0  0  0  0  0  0  0  0  0  0  0  0
   48.8212    0.1976    3.4154 C   0  0  0  0  0  0  0  0  0  0  0  0
   49.7659    0.2322    2.4456 C   0  0  0  0  0  0  0  0  0  0  0  0
   47.7286    0.0420    1.3925 N   0  0  0  0  0  0  0  0  0  0  0  0
   49.0774    0.1136    1.1985 C   0  0  0  0  0  0  0  0  0  0  0  0
   49.7358    0.0047   -0.0308 C   0  0  0  0  0  0  0  0  0  0  0  0
   49.0589   -0.1021   -1.2501 C   0  0  0  0  0  0  0  0  0  0  0  0
   49.7253   -0.2325   -2.5077 C   0  0  0  0  0  0  0  0  0  0  0  0
   48.7650   -0.1872   -3.4623 C   0  0  0  0  0  0  0  0  0  0  0  0
   47.5143   -0.0249   -2.7830 C   0  0  0  0  0  0  0  0  0  0  0  0
   46.2945    0.1261   -3.4292 C   0  0  0  0  0  0  0  0  0  0  0  0
   46.2819    0.1975   -4.9085 C   0  0  0  0  0  0  0  0  0  0  0  0
   45.6046   -0.7674   -5.6587 C   0  0  0  0  0  0  0  0  0  0  0  0
   45.5967   -0.6981   -7.0396 C   0  0  0  0  0  0  0  0  0  0  0  0
   46.2611    0.3397   -7.6959 C   0  0  0  0  0  0  0  0  0  0  0  0
   46.2203    0.3733   -9.1776 C   0  0  0  0  0  0  0  0  0  0  0  0
   46.8905    1.4064   -9.7100 O   0  0  0  0  0  0  0  0  0  0  0  0
   45.6474   -0.4370   -9.8608 O   0  0  0  0  0  0  0  0  0  0  0  0
   46.9378    1.3062   -6.9512 C   0  0  0  0  0  0  0  0  0  0  0  0
   46.9493    1.2318   -5.5694 C   0  0  0  0  0  0  0  0  0  0  0  0
   45.0852    0.1995   -2.7478 C   0  0  0  0  0  0  0  0  0  0  0  0
   43.8126    0.3763   -3.3863 C   0  0  0  0  0  0  0  0  0  0  0  0
   42.8727    0.2879   -2.4163 C   0  0  0  0  0  0  0  0  0  0  0  0
   43.5719    0.0739   -1.1853 C   0  0  0  0  0  0  0  0  0  0  0  0
   44.9266    0.0654   -1.3942 N   0  0  0  0  0  0  0  0  0  0  0  0
   47.7086   -0.0062   -1.4233 N   0  0  0  0  0  0  0  0  0  0  0  0
   46.3684   -0.1892    4.9047 C   0  0  0  0  0  0  0  0  0  0  0  0
   46.0592   -1.3764    5.5727 C   0  0  0  0  0  0  0  0  0  0  0  0
   46.0739   -1.4222    6.9547 C   0  0  0  0  0  0  0  0  0  0  0  0
   46.3931   -0.2810    7.6929 C   0  0  0  0  0  0  0  0  0  0  0  0
   46.3928   -0.3796    9.1723 C   0  0  0  0  0  0  0  0  0  0  0  0
   46.7154    0.7683    9.7871 O   0  0  0  0  0  0  0  0  0  0  0  0
   46.1314   -1.3823    9.7870 O   0  0  0  0  0  0  0  0  0  0  0  0
   46.7004    0.9072    7.0295 C   0  0  0  0  0  0  0  0  0  0  0  0
   46.6900    0.9498    5.6461 C   0  0  0  0  0  0  0  0  0  0  0  0
   41.8593   -0.1755    0.0313 H   0  0  0  0  0  0  0  0  0  0  0  0
   41.8669   -0.6325    2.5828 H   0  0  0  0  0  0  0  0  0  0  0  0
   43.7675   -0.6187    4.4959 H   0  0  0  0  0  0  0  0  0  0  0  0
   48.9600    0.2395    4.4834 H   0  0  0  0  0  0  0  0  0  0  0  0
   50.8356    0.3166    2.5497 H   0  0  0  0  0  0  0  0  0  0  0  0
   50.7909   -0.3423   -2.6286 H   0  0  0  0  0  0  0  0  0  0  0  0
   48.8820   -0.2659   -4.5308 H   0  0  0  0  0  0  0  0  0  0  0  0
   45.0986   -1.5808   -5.1513 H   0  0  0  0  0  0  0  0  0  0  0  0
   45.0775   -1.4462   -7.6286 H   0  0  0  0  0  0  0  0  0  0  0  0
   46.8150    1.3564  -10.6767 H   0  0  0  0  0  0  0  0  0  0  0  0
   47.4526    2.1148   -7.4565 H   0  0  0  0  0  0  0  0  0  0  0  0
   47.4657    1.9887   -4.9899 H   0  0  0  0  0  0  0  0  0  0  0  0
   43.6700    0.5469   -4.4410 H   0  0  0  0  0  0  0  0  0  0  0  0
   41.8004    0.3589   -2.5060 H   0  0  0  0  0  0  0  0  0  0  0  0
   45.8220   -2.2658    5.0002 H   0  0  0  0  0  0  0  0  0  0  0  0
   45.8399   -2.3412    7.4808 H   0  0  0  0  0  0  0  0  0  0  0  0
   46.6923    0.6203   10.7464 H   0  0  0  0  0  0  0  0  0  0  0  0
   46.9459    1.7958    7.5990 H   0  0  0  0  0  0  0  0  0  0  0  0
   46.9186    1.8753    5.1299 H   0  0  0  0  0  0  0  0  0  0  0  0
  101.9813   -0.0694   -0.0482 Fe  0  0  0  0  0  0  0  0  0  0  0  0
  105.3688   -0.1306   -0.0858 C   0  0  0  0  0  0  0  0  0  0  0  0
  104.7083   -0.1606   -1.2967 C   0  0  0  0  0  0  0  0  0  0  0  0
  105.3752   -0.2289   -2.5620 C   0  0  0  0  0  0  0  0  0  0  0  0
  104.4180   -0.1139   -3.5120 C   0  0  0  0  0  0  0  0  0  0  0  0
  103.1649    0.0159   -2.8253 C   0  0  0  0  0  0  0  0  0  0  0  0
  103.3554   -0.0301   -1.4705 N   0  0  0  0  0  0  0  0  0  0  0  0
  101.9538    0.2705   -3.4585 C   0  0  0  0  0  0  0  0  0  0  0  0
  100.7556    0.4048   -2.7716 C   0  0  0  0  0  0  0  0  0  0  0  0
   99.4919    0.6329   -3.4073 C   0  0  0  0  0  0  0  0  0  0  0  0
   98.5479    0.5597   -2.4387 C   0  0  0  0  0  0  0  0  0  0  0  0
  100.5831    0.2218   -1.4199 N   0  0  0  0  0  0  0  0  0  0  0  0
   99.2354    0.2826   -1.2165 C   0  0  0  0  0  0  0  0  0  0  0  0
   98.5764    0.0210   -0.0102 C   0  0  0  0  0  0  0  0  0  0  0  0
   99.2541   -0.2431    1.1851 C   0  0  0  0  0  0  0  0  0  0  0  0
   98.5888   -0.5301    2.4171 C   0  0  0  0  0  0  0  0  0  0  0  0
   99.5497   -0.6019    3.3695 C   0  0  0  0  0  0  0  0  0  0  0  0
  100.7997   -0.3534    2.7151 C   0  0  0  0  0  0  0  0  0  0  0  0
  102.0190   -0.2740    3.3746 C   0  0  0  0  0  0  0  0  0  0  0  0
  102.0327   -0.3780    4.8518 C   0  0  0  0  0  0  0  0  0  0  0  0
  102.7191   -1.4189    5.4827 C   0  0  0  0  0  0  0  0  0  0  0  0
  102.7288   -1.5126    6.8621 C   0  0  0  0  0  0  0  0  0  0  0  0
  102.0572   -0.5647    7.6365 C   0  0  0  0  0  0  0  0  0  0  0  0
  102.1005   -0.7053    9.1119 C   0  0  0  0  0  0  0  0  0  0  0  0
  101.4236    0.2528    9.7626 O   0  0  0  0  0  0  0  0  0  0  0  0
  102.6809   -1.5859    9.6943 O   0  0  0  0  0  0  0  0  0  0  0  0
  101.3714    0.4772    7.0114 C   0  0  0  0  0  0  0  0  0  0  0  0
  101.3580    0.5658    5.6304 C   0  0  0  0  0  0  0  0  0  0  0  0
  103.2275   -0.1129    2.7065 C   0  0  0  0  0  0  0  0  0  0  0  0
  104.4997   -0.0036    3.3608 C   0  0  0  0  0  0  0  0  0  0  0  0
  105.4395    0.0238    2.3869 C   0  0  0  0  0  0  0  0  0  0  0  0
  104.7405   -0.0518    1.1396 C   0  0  0  0  0  0  0  0  0  0  0  0
  103.3861   -0.0905    1.3467 N   0  0  0  0  0  0  0  0  0  0  0  0
  100.6042   -0.1694    1.3678 N   0  0  0  0  0  0  0  0  0  0  0  0
  101.9409    0.3932   -4.9361 C   0  0  0  0  0  0  0  0  0  0  0  0
  102.2381   -0.7124   -5.7366 C   0  0  0  0  0  0  0  0  0  0  0  0
  102.2227   -0.5989   -7.1146 C   0  0  0  0  0  0  0  0  0  0  0  0
  101.9150    0.6227   -7.7163 C   0  0  0  0  0  0  0  0  0  0  0  0
  101.9137    0.6947   -9.1973 C   0  0  0  0  0  0  0  0  0  0  0  0
  101.6045    1.9094   -9.6756 O   0  0  0  0  0  0  0  0  0  0  0  0
  102.1627   -0.2338   -9.9235 O   0  0  0  0  0  0  0  0  0  0  0  0
  101.6203    1.7300   -6.9204 C   0  0  0  0  0  0  0  0  0  0  0  0
  101.6312    1.6131   -5.5412 C   0  0  0  0  0  0  0  0  0  0  0  0
  106.4524   -0.1628   -0.0986 H   0  0  0  0  0  0  0  0  0  0  0  0
  106.4408   -0.3379   -2.6865 H   0  0  0  0  0  0  0  0  0  0  0  0
  104.5383   -0.1019   -4.5831 H   0  0  0  0  0  0  0  0  0  0  0  0
   99.3532    0.8059   -4.4619 H   0  0  0  0  0  0  0  0  0  0  0  0
   97.4792    0.6673   -2.5302 H   0  0  0  0  0  0  0  0  0  0  0  0
   97.5234   -0.6557    2.5241 H   0  0  0  0  0  0  0  0  0  0  0  0
   99.4336   -0.8126    4.4201 H   0  0  0  0  0  0  0  0  0  0  0  0
  103.2309   -2.1626    4.8827 H   0  0  0  0  0  0  0  0  0  0  0  0
  103.2550   -2.3206    7.3585 H   0  0  0  0  0  0  0  0  0  0  0  0
  101.5011    0.0902   10.7168 H   0  0  0  0  0  0  0  0  0  0  0  0
  100.8511    1.2165    7.6087 H   0  0  0  0  0  0  0  0  0  0  0  0
  100.8347    1.3815    5.1444 H   0  0  0  0  0  0  0  0  0  0  0  0
  104.6422    0.0463    4.4280 H   0  0  0  0  0  0  0  0  0  0  0  0
  106.5114    0.0896    2.4841 H   0  0  0  0  0  0  0  0  0  0  0  0
  102.4664   -1.6640   -5.2704 H   0  0  0  0  0  0  0  0  0  0  0  0
  102.4472   -1.4537   -7.7432 H   0  0  0  0  0  0  0  0  0  0  0  0
  101.6258    1.8723  -10.6457 H   0  0  0  0  0  0  0  0  0  0  0  0
  101.3841    2.6806   -7.3835 H   0  0  0  0  0  0  0  0  0  0  0  0
  101.4124    2.4755   -4.9218 H   0  0  0  0  0  0  0  0  0  0  0  0
   51.1391    0.0026   -0.0410 C   0  0  0  0  0  0  0  0  0  0  0  0
   52.3641    0.0021   -0.0487 C   0  0  0  0  0  0  0  0  0  0  0  0
   53.7058    0.0018   -0.0548 C   0  0  0  0  0  0  0  0  0  0  0  0
   54.9372    0.0014   -0.0577 C   0  0  0  0  0  0  0  0  0  0  0  0
   56.2740    0.0019   -0.0590 C   0  0  0  0  0  0  0  0  0  0  0  0
   57.5055    0.0026   -0.0580 C   0  0  0  0  0  0  0  0  0  0  0  0
   58.8467    0.0041   -0.0542 C   0  0  0  0  0  0  0  0  0  0  0  0
   60.0722    0.0060   -0.0498 C   0  0  0  0  0  0  0  0  0  0  0  0
   69.6916    0.0288   -0.0008 C   0  0  0  0  0  0  0  0  0  0  0  0
   70.9186    0.0294    0.0036 C   0  0  0  0  0  0  0  0  0  0  0  0
   72.2572    0.0309    0.0072 C   0  0  0  0  0  0  0  0  0  0  0  0
   73.4906    0.0302    0.0091 C   0  0  0  0  0  0  0  0  0  0  0  0
   74.8244    0.0299    0.0094 C   0  0  0  0  0  0  0  0  0  0  0  0
   76.0577    0.0291    0.0085 C   0  0  0  0  0  0  0  0  0  0  0  0
   77.3963    0.0287    0.0063 C   0  0  0  0  0  0  0  0  0  0  0  0
   78.6234    0.0277    0.0033 C   0  0  0  0  0  0  0  0  0  0  0  0
   88.2408    0.0230    0.0138 C   0  0  0  0  0  0  0  0  0  0  0  0
   89.4667    0.0228    0.0188 C   0  0  0  0  0  0  0  0  0  0  0  0
   90.8073    0.0228    0.0221 C   0  0  0  0  0  0  0  0  0  0  0  0
   92.0393    0.0242    0.0233 C   0  0  0  0  0  0  0  0  0  0  0  0
   93.3754    0.0254    0.0210 C   0  0  0  0  0  0  0  0  0  0  0  0
   94.6073    0.0256    0.0177 C   0  0  0  0  0  0  0  0  0  0  0  0
   95.9484    0.0242    0.0104 C   0  0  0  0  0  0  0  0  0  0  0  0
   97.1738    0.0229    0.0011 C   0  0  0  0  0  0  0  0  0  0  0  0
   64.8829    0.0178   -0.0229 Fe  0  0  0  0  0  0  0  0  0  0  0  0
   61.4739    0.0093   -0.0441 C   0  0  0  0  0  0  0  0  0  0  0  0
   62.1499   -1.2023   -0.2315 C   0  0  0  0  0  0  0  0  0  0  0  0
   61.4896   -2.4477   -0.4655 C   0  0  0  0  0  0  0  0  0  0  0  0
   62.4465   -3.4071   -0.4269 C   0  0  0  0  0  0  0  0  0  0  0  0
   63.6865   -2.7420   -0.1599 C   0  0  0  0  0  0  0  0  0  0  0  0
   63.4951   -1.3846   -0.0966 N   0  0  0  0  0  0  0  0  0  0  0  0
   64.8888   -3.3972    0.0833 C   0  0  0  0  0  0  0  0  0  0  0  0
   66.0897   -2.7261    0.2751 C   0  0  0  0  0  0  0  0  0  0  0  0
   67.3341   -3.3684    0.5765 C   0  0  0  0  0  0  0  0  0  0  0  0
   68.2879   -2.4057    0.5445 C   0  0  0  0  0  0  0  0  0  0  0  0
   66.2777   -1.3740    0.1194 N   0  0  0  0  0  0  0  0  0  0  0  0
   67.6212   -1.1797    0.2370 C   0  0  0  0  0  0  0  0  0  0  0  0
   68.2927    0.0261   -0.0076 C   0  0  0  0  0  0  0  0  0  0  0  0
   67.6184    1.2286   -0.2599 C   0  0  0  0  0  0  0  0  0  0  0  0
   68.2829    2.4580   -0.5588 C   0  0  0  0  0  0  0  0  0  0  0  0
   67.3248    3.4158   -0.6040 C   0  0  0  0  0  0  0  0  0  0  0  0
   66.0798    2.7672   -0.3188 C   0  0  0  0  0  0  0  0  0  0  0  0
   64.8733    3.4324   -0.1423 C   0  0  0  0  0  0  0  0  0  0  0  0
   64.8623    4.9115   -0.2052 C   0  0  0  0  0  0  0  0  0  0  0  0
   65.6187    5.6662    0.6953 C   0  0  0  0  0  0  0  0  0  0  0  0
   65.6013    7.0474    0.6339 C   0  0  0  0  0  0  0  0  0  0  0  0
   64.8331    7.6993   -0.3325 C   0  0  0  0  0  0  0  0  0  0  0  0
   64.8495    9.1821   -0.3601 C   0  0  0  0  0  0  0  0  0  0  0  0
   64.0770    9.7091   -1.3216 O   0  0  0  0  0  0  0  0  0  0  0  0
   65.4869    9.8689    0.3968 O   0  0  0  0  0  0  0  0  0  0  0  0
   64.0788    6.9502   -1.2359 C   0  0  0  0  0  0  0  0  0  0  0  0
   64.0921    5.5681   -1.1686 C   0  0  0  0  0  0  0  0  0  0  0  0
   63.6717    2.7716    0.0891 C   0  0  0  0  0  0  0  0  0  0  0  0
   62.4262    3.4308    0.3449 C   0  0  0  0  0  0  0  0  0  0  0  0
   61.4738    2.4665    0.3767 C   0  0  0  0  0  0  0  0  0  0  0  0
   62.1422    1.2243    0.1490 C   0  0  0  0  0  0  0  0  0  0  0  0
   63.4874    1.4134    0.0236 N   0  0  0  0  0  0  0  0  0  0  0  0
   66.2723    1.4159   -0.1617 N   0  0  0  0  0  0  0  0  0  0  0  0
   64.8851   -4.8764    0.1440 C   0  0  0  0  0  0  0  0  0  0  0  0
   64.1080   -5.5398    1.0975 C   0  0  0  0  0  0  0  0  0  0  0  0
   64.1060   -6.9211    1.1569 C   0  0  0  0  0  0  0  0  0  0  0  0
   64.8751   -7.6648    0.2600 C   0  0  0  0  0  0  0  0  0  0  0  0
   64.8359   -9.1440    0.3608 C   0  0  0  0  0  0  0  0  0  0  0  0
   65.6078   -9.7640   -0.5440 O   0  0  0  0  0  0  0  0  0  0  0  0
   64.1816   -9.7527    1.1684 O   0  0  0  0  0  0  0  0  0  0  0  0
   65.6499   -7.0073   -0.6958 C   0  0  0  0  0  0  0  0  0  0  0  0
   65.6561   -5.6243   -0.7493 C   0  0  0  0  0  0  0  0  0  0  0  0
   60.4302   -2.5589   -0.6310 H   0  0  0  0  0  0  0  0  0  0  0  0
   62.3324   -4.4695   -0.5679 H   0  0  0  0  0  0  0  0  0  0  0  0
   67.4530   -4.4188    0.7865 H   0  0  0  0  0  0  0  0  0  0  0  0
   69.3487   -2.5027    0.7104 H   0  0  0  0  0  0  0  0  0  0  0  0
   69.3454    2.5604   -0.7099 H   0  0  0  0  0  0  0  0  0  0  0  0
   67.4413    4.4668   -0.8120 H   0  0  0  0  0  0  0  0  0  0  0  0
   66.2059    5.1618    1.4542 H   0  0  0  0  0  0  0  0  0  0  0  0
   66.1806    7.6400    1.3334 H   0  0  0  0  0  0  0  0  0  0  0  0
   64.1420   10.6768   -1.2731 H   0  0  0  0  0  0  0  0  0  0  0  0
   63.4838    7.4520   -1.9898 H   0  0  0  0  0  0  0  0  0  0  0  0
   63.5149    4.9851   -1.8774 H   0  0  0  0  0  0  0  0  0  0  0  0
   62.3057    4.4926    0.4847 H   0  0  0  0  0  0  0  0  0  0  0  0
   60.4126    2.5725    0.5340 H   0  0  0  0  0  0  0  0  0  0  0  0
   63.5191   -4.9632    1.8017 H   0  0  0  0  0  0  0  0  0  0  0  0
   63.5101   -7.4425    1.8979 H   0  0  0  0  0  0  0  0  0  0  0  0
   65.5269  -10.7227   -0.4125 H   0  0  0  0  0  0  0  0  0  0  0  0
   66.2453   -7.5809   -1.3962 H   0  0  0  0  0  0  0  0  0  0  0  0
   66.2485   -5.1134   -1.4999 H   0  0  0  0  0  0  0  0  0  0  0  0
   83.4314    0.0244   -0.0043 Fe  0  0  0  0  0  0  0  0  0  0  0  0
   80.0222    0.0269   -0.0012 C   0  0  0  0  0  0  0  0  0  0  0  0
   80.6941   -1.1944   -0.1491 C   0  0  0  0  0  0  0  0  0  0  0  0
   80.0284   -2.4429   -0.3495 C   0  0  0  0  0  0  0  0  0  0  0  0
   80.9843   -3.4032   -0.3081 C   0  0  0  0  0  0  0  0  0  0  0  0
   82.2288   -2.7359   -0.0675 C   0  0  0  0  0  0  0  0  0  0  0  0
   82.0389   -1.3759   -0.0264 N   0  0  0  0  0  0  0  0  0  0  0  0
   83.4311   -3.3860    0.1810 C   0  0  0  0  0  0  0  0  0  0  0  0
   84.6316   -2.7100    0.3701 C   0  0  0  0  0  0  0  0  0  0  0  0
   85.8713   -3.3453    0.7029 C   0  0  0  0  0  0  0  0  0  0  0  0
   86.8262   -2.3837    0.6607 C   0  0  0  0  0  0  0  0  0  0  0  0
   84.8214   -1.3636    0.1843 N   0  0  0  0  0  0  0  0  0  0  0  0
   86.1651   -1.1664    0.3101 C   0  0  0  0  0  0  0  0  0  0  0  0
   86.8398    0.0227    0.0065 C   0  0  0  0  0  0  0  0  0  0  0  0
   86.1688    1.2113   -0.3079 C   0  0  0  0  0  0  0  0  0  0  0  0
   86.8340    2.4256   -0.6607 C   0  0  0  0  0  0  0  0  0  0  0  0
   85.8797    3.3866   -0.7229 C   0  0  0  0  0  0  0  0  0  0  0  0
   84.6365    2.7545   -0.3973 C   0  0  0  0  0  0  0  0  0  0  0  0
   83.4357    3.4330   -0.2203 C   0  0  0  0  0  0  0  0  0  0  0  0
   83.4420    4.9111   -0.3024 C   0  0  0  0  0  0  0  0  0  0  0  0
   84.2223    5.6626    0.5805 C   0  0  0  0  0  0  0  0  0  0  0  0
   84.2250    7.0432    0.5068 C   0  0  0  0  0  0  0  0  0  0  0  0
   83.4536    7.6977   -0.4552 C   0  0  0  0  0  0  0  0  0  0  0  0
   83.4932    9.1798   -0.4971 C   0  0  0  0  0  0  0  0  0  0  0  0
   82.7173    9.7103   -1.4538 O   0  0  0  0  0  0  0  0  0  0  0  0
   84.1509    9.8630    0.2456 O   0  0  0  0  0  0  0  0  0  0  0  0
   82.6757    6.9518   -1.3412 C   0  0  0  0  0  0  0  0  0  0  0  0
   82.6689    5.5702   -1.2614 C   0  0  0  0  0  0  0  0  0  0  0  0
   82.2327    2.7864    0.0346 C   0  0  0  0  0  0  0  0  0  0  0  0
   80.9905    3.4573    0.2765 C   0  0  0  0  0  0  0  0  0  0  0  0
   80.0339    2.4984    0.3338 C   0  0  0  0  0  0  0  0  0  0  0  0
   80.6968    1.2475    0.1388 C   0  0  0  0  0  0  0  0  0  0  0  0
   82.0409    1.4266    0.0045 N   0  0  0  0  0  0  0  0  0  0  0  0
   84.8238    1.4092   -0.1997 N   0  0  0  0  0  0  0  0  0  0  0  0
   83.4371   -4.8649    0.2473 C   0  0  0  0  0  0  0  0  0  0  0  0
   82.6620   -5.5362    1.1967 C   0  0  0  0  0  0  0  0  0  0  0  0
   82.6720   -6.9177    1.2539 C   0  0  0  0  0  0  0  0  0  0  0  0
   83.4513   -7.6534    0.3593 C   0  0  0  0  0  0  0  0  0  0  0  0
   83.4242   -9.1332    0.4567 C   0  0  0  0  0  0  0  0  0  0  0  0
   84.2073   -9.7443   -0.4443 O   0  0  0  0  0  0  0  0  0  0  0  0
   82.7700   -9.7494    1.2588 O   0  0  0  0  0  0  0  0  0  0  0  0
   84.2253   -6.9879   -0.5916 C   0  0  0  0  0  0  0  0  0  0  0  0
   84.2195   -5.6050   -0.6429 C   0  0  0  0  0  0  0  0  0  0  0  0
   78.9667   -2.5552   -0.4996 H   0  0  0  0  0  0  0  0  0  0  0  0
   80.8663   -4.4675   -0.4293 H   0  0  0  0  0  0  0  0  0  0  0  0
   85.9863   -4.3902    0.9404 H   0  0  0  0  0  0  0  0  0  0  0  0
   87.8847   -2.4770    0.8420 H   0  0  0  0  0  0  0  0  0  0  0  0
   87.8946    2.5173   -0.8307 H   0  0  0  0  0  0  0  0  0  0  0  0
   85.9978    4.4294   -0.9683 H   0  0  0  0  0  0  0  0  0  0  0  0
   84.8126    5.1560    1.3356 H   0  0  0  0  0  0  0  0  0  0  0  0
   84.8232    7.6331    1.1926 H   0  0  0  0  0  0  0  0  0  0  0  0
   82.7984   10.6772   -1.4152 H   0  0  0  0  0  0  0  0  0  0  0  0
   82.0784    7.4559   -2.0917 H   0  0  0  0  0  0  0  0  0  0  0  0
   82.0739    4.9899   -1.9576 H   0  0  0  0  0  0  0  0  0  0  0  0
   80.8746    4.5228    0.3894 H   0  0  0  0  0  0  0  0  0  0  0  0
   78.9735    2.6132    0.4905 H   0  0  0  0  0  0  0  0  0  0  0  0
   82.0658   -4.9660    1.8999 H   0  0  0  0  0  0  0  0  0  0  0  0
   82.0775   -7.4455    1.9916 H   0  0  0  0  0  0  0  0  0  0  0  0
   84.1344  -10.7040   -0.3154 H   0  0  0  0  0  0  0  0  0  0  0  0
   84.8293   -7.5552   -1.2897 H   0  0  0  0  0  0  0  0  0  0  0  0
   84.8117   -5.0876   -1.3892 H   0  0  0  0  0  0  0  0  0  0  0  0
  2  3  4  0  0  0  0
  3  4  4  0  0  0  0
  4  5  2  0  0  0  0
  5  6  4  0  0  0  0
  1  7  1  0  0  0  0
  3  7  4  0  0  0  0
  6  7  4  0  0  0  0
  6  8  4  0  0  0  0
  8  9  4  0  0  0  0
  9 10  4  0  0  0  0
 10 11  2  0  0  0  0
  1 12  1  0  0  0  0
  9 12  4  0  0  0  0
 11 13  4  0  0  0  0
 12 13  4  0  0  0  0
 13 14  4  0  0  0  0
 14 15  4  0  0  0  0
 15 16  4  0  0  0  0
 16 17  2  0  0  0  0
 17 18  4  0  0  0  0
 18 19  4  0  0  0  0
 19 20  1  0  0  0  0
 20 21  4  0  0  0  0
 21 22  4  0  0  0  0
 22 23  4  0  0  0  0
 23 24  1  0  0  0  0
 24 25  4  0  0  0  0
 24 26  2  0  0  0  0
 23 27  4  0  0  0  0
 20 28  4  0  0  0  0
 27 28  4  0  0  0  0
 19 29  4  0  0  0  0
 29 30  4  0  0  0  0
 30 31  2  0  0  0  0
  2 32  4  0  0  0  0
 31 32  4  0  0  0  0
  1 33  1  0  0  0  0
 29 33  4  0  0  0  0
 32 33  4  0  0  0  0
  1 34  1  0  0  0  0
 15 34  4  0  0  0  0
 18 34  4  0  0  0  0
  8 35  1  0  0  0  0
 35 36  4  0  0  0  0
 36 37  4  0  0  0  0
 37 38  4  0  0  0  0
 38 39  1  0  0  0  0
 39 40  4  0  0  0  0
 39 41  2  0  0  0  0
 38 42  4  0  0  0  0
 35 43  4  0  0  0  0
 42 43  4  0  0  0  0
  2 44  1  0  0  0  0
  4 45  1  0  0  0  0
  5 46  1  0  0  0  0
 10 47  1  0  0  0  0
 11 48  1  0  0  0  0
 16 49  1  0  0  0  0
 17 50  1  0  0  0  0
 21 51  1  0  0  0  0
 22 52  1  0  0  0  0
 25 53  1  0  0  0  0
 27 54  1  0  0  0  0
 28 55  1  0  0  0  0
 30 56  1  0  0  0  0
 31 57  1  0  0  0  0
 36 58  1  0  0  0  0
 37 59  1  0  0  0  0
 40 60  1  0  0  0  0
 42 61  1  0  0  0  0
 43 62  1  0  0  0  0
 64 65  4  0  0  0  0
 65 66  4  0  0  0  0
 66 67  2  0  0  0  0
 67 68  4  0  0  0  0
 63 69  1  0  0  0  0
 65 69  4  0  0  0  0
 68 69  4  0  0  0  0
 68 70  4  0  0  0  0
 70 71  4  0  0  0  0
 71 72  4  0  0  0  0
 72 73  2  0  0  0  0
 63 74  1  0  0  0  0
 71 74  4  0  0  0  0
 73 75  4  0  0  0  0
 74 75  4  0  0  0  0
 75 76  4  0  0  0  0
 76 77  4  0  0  0  0
 77 78  4  0  0  0  0
 78 79  2  0  0  0  0
 79 80  4  0  0  0  0
 80 81  4  0  0  0  0
 81 82  1  0  0  0  0
 82 83  4  0  0  0  0
 83 84  4  0  0  0  0
 84 85  4  0  0  0  0
 85 86  1  0  0  0  0
 86 87  4  0  0  0  0
 86 88  2  0  0  0  0
 85 89  4  0  0  0  0
 82 90  4  0  0  0  0
 89 90  4  0  0  0  0
 81 91  4  0  0  0  0
 91 92  4  0  0  0  0
 92 93  2  0  0  0  0
 64 94  4  0  0  0  0
 93 94  4  0  0  0  0
 63 95  1  0  0  0  0
 91 95  4  0  0  0  0
 94 95  4  0  0  0  0
 63 96  1  0  0  0  0
 77 96  4  0  0  0  0
 80 96  4  0  0  0  0
 70 97  1  0  0  0  0
 97 98  4  0  0  0  0
 98 99  4  0  0  0  0
 99100  4  0  0  0  0
100101  1  0  0  0  0
101102  4  0  0  0  0
101103  2  0  0  0  0
100104  4  0  0  0  0
 97105  4  0  0  0  0
104105  4  0  0  0  0
 64106  1  0  0  0  0
 66107  1  0  0  0  0
 67108  1  0  0  0  0
 72109  1  0  0  0  0
 73110  1  0  0  0  0
 78111  1  0  0  0  0
 79112  1  0  0  0  0
 83113  1  0  0  0  0
 84114  1  0  0  0  0
 87115  1  0  0  0  0
 89116  1  0  0  0  0
 90117  1  0  0  0  0
 92118  1  0  0  0  0
 93119  1  0  0  0  0
 98120  1  0  0  0  0
 99121  1  0  0  0  0
102122  1  0  0  0  0
104123  1  0  0  0  0
105124  1  0  0  0  0
 14125  4  0  0  0  0
125126  3  0  0  0  0
126127  4  0  0  0  0
127128  3  0  0  0  0
128129  4  0  0  0  0
129130  3  0  0  0  0
130131  4  0  0  0  0
131132  3  0  0  0  0
133134  3  0  0  0  0
134135  4  0  0  0  0
135136  3  0  0  0  0
136137  4  0  0  0  0
137138  3  0  0  0  0
138139  4  0  0  0  0
139140  3  0  0  0  0
141142  3  0  0  0  0
142143  4  0  0  0  0
143144  3  0  0  0  0
144145  4  0  0  0  0
145146  3  0  0  0  0
146147  4  0  0  0  0
 76148  4  0  0  0  0
147148  3  0  0  0  0
132150  4  0  0  0  0
150151  4  0  0  0  0
151152  4  0  0  0  0
152153  2  0  0  0  0
153154  4  0  0  0  0
149155  1  0  0  0  0
151155  4  0  0  0  0
154155  4  0  0  0  0
154156  4  0  0  0  0
156157  4  0  0  0  0
157158  4  0  0  0  0
158159  2  0  0  0  0
149160  1  0  0  0  0
157160  4  0  0  0  0
159161  4  0  0  0  0
160161  4  0  0  0  0
133162  4  0  0  0  0
161162  4  0  0  0  0
162163  4  0  0  0  0
163164  4  0  0  0  0
164165  2  0  0  0  0
165166  4  0  0  0  0
166167  4  0  0  0  0
167168  1  0  0  0  0
168169  4  0  0  0  0
169170  4  0  0  0  0
170171  4  0  0  0  0
171172  1  0  0  0  0
172173  4  0  0  0  0
172174  2  0  0  0  0
171175  4  0  0  0  0
168176  4  0  0  0  0
175176  4  0  0  0  0
167177  4  0  0  0  0
177178  4  0  0  0  0
178179  2  0  0  0  0
150180  4  0  0  0  0
179180  4  0  0  0  0
149181  1  0  0  0  0
177181  4  0  0  0  0
180181  4  0  0  0  0
149182  1  0  0  0  0
163182  4  0  0  0  0
166182  4  0  0  0  0
156183  1  0  0  0  0
183184  4  0  0  0  0
184185  4  0  0  0  0
185186  4  0  0  0  0
186187  1  0  0  0  0
187188  4  0  0  0  0
187189  2  0  0  0  0
186190  4  0  0  0  0
183191  4  0  0  0  0
190191  4  0  0  0  0
152192  1  0  0  0  0
153193  1  0  0  0  0
158194  1  0  0  0  0
159195  1  0  0  0  0
164196  1  0  0  0  0
165197  1  0  0  0  0
169198  1  0  0  0  0
170199  1  0  0  0  0
173200  1  0  0  0  0
175201  1  0  0  0  0
176202  1  0  0  0  0
178203  1  0  0  0  0
179204  1  0  0  0  0
184205  1  0  0  0  0
185206  1  0  0  0  0
188207  1  0  0  0  0
190208  1  0  0  0  0
191209  1  0  0  0  0
140211  4  0  0  0  0
211212  4  0  0  0  0
212213  4  0  0  0  0
213214  2  0  0  0  0
214215  4  0  0  0  0
210216  1  0  0  0  0
212216  4  0  0  0  0
215216  4  0  0  0  0
215217  4  0  0  0  0
217218  4  0  0  0  0
218219  4  0  0  0  0
219220  2  0  0  0  0
210221  1  0  0  0  0
218221  4  0  0  0  0
220222  4  0  0  0  0
221222  4  0  0  0  0
141223  4  0  0  0  0
222223  4  0  0  0  0
223224  4  0  0  0  0
224225  4  0  0  0  0
225226  2  0  0  0  0
226227  4  0  0  0  0
227228  4  0  0  0  0
228229  1  0  0  0  0
229230  4  0  0  0  0
230231  4  0  0  0  0
231232  4  0  0  0  0
232233  1  0  0  0  0
233234  4  0  0  0  0
233235  2  0  0  0  0
232236  4  0  0  0  0
229237  4  0  0  0  0
236237  4  0  0  0  0
228238  4  0  0  0  0
238239  4  0  0  0  0
239240  2  0  0  0  0
211241  4  0  0  0  0
240241  4  0  0  0  0
210242  1  0  0  0  0
238242  4  0  0  0  0
241242  4  0  0  0  0
210243  1  0  0  0  0
224243  4  0  0  0  0
227243  4  0  0  0  0
217244  1  0  0  0  0
244245  4  0  0  0  0
245246  4  0  0  0  0
246247  4  0  0  0  0
247248  1  0  0  0  0
248249  4  0  0  0  0
248250  2  0  0  0  0
247251  4  0  0  0  0
244252  4  0  0  0  0
251252  4  0  0  0  0
213253  1  0  0  0  0
214254  1  0  0  0  0
219255  1  0  0  0  0
220256  1  0  0  0  0
225257  1  0  0  0  0
226258  1  0  0  0  0
230259  1  0  0  0  0
231260  1  0  0  0  0
234261  1  0  0  0  0
236262  1  0  0  0  0
237263  1  0  0  0  0
239264  1  0  0  0  0
240265  1  0  0  0  0
245266  1  0  0  0  0
246267  1  0  0  0  0
249268  1  0  0  0  0
251269  1  0  0  0  0
252270  1  0  0  0  0
M  END
