 xtb: 6.5.1 (b24c23e)
          07292221143D

126145  0     0  0            999 V2000
   17.2810    0.0693   -0.0226 Fe  0  0  0  0  0  0  0  0  0  0  0  0
   13.8883    0.1073    0.0630 C   0  0  0  0  0  0  0  0  0  0  0  0
   14.5478    1.3127   -0.0680 C   0  0  0  0  0  0  0  0  0  0  0  0
   13.8796    2.5729   -0.1927 C   0  0  0  0  0  0  0  0  0  0  0  0
   14.8427    3.5242   -0.1950 C   0  0  0  0  0  0  0  0  0  0  0  0
   16.0996    2.8433   -0.0738 C   0  0  0  0  0  0  0  0  0  0  0  0
   15.9054    1.4896   -0.0154 N   0  0  0  0  0  0  0  0  0  0  0  0
   17.3199    3.4879    0.0985 C   0  0  0  0  0  0  0  0  0  0  0  0
   17.3376    4.9720    0.1258 C   0  0  0  0  0  0  0  0  0  0  0  0
   17.0053    5.6944   -1.0197 C   0  0  0  0  0  0  0  0  0  0  0  0
   17.0306    7.0842   -0.9973 C   0  0  0  0  0  0  0  0  0  0  0  0
   16.7196    7.7974   -2.1067 O   0  0  0  0  0  0  0  0  0  0  0  0
   17.3796    7.7543    0.1765 C   0  0  0  0  0  0  0  0  0  0  0  0
   17.3928    9.1242    0.1695 O   0  0  0  0  0  0  0  0  0  0  0  0
   17.7049    7.0313    1.3215 C   0  0  0  0  0  0  0  0  0  0  0  0
   18.0316    7.7586    2.4352 O   0  0  0  0  0  0  0  0  0  0  0  0
   17.6896    5.6421    1.2999 C   0  0  0  0  0  0  0  0  0  0  0  0
   18.5203    2.8074    0.2505 C   0  0  0  0  0  0  0  0  0  0  0  0
   19.7863    3.4527    0.4296 C   0  0  0  0  0  0  0  0  0  0  0  0
   20.7278    2.4792    0.4059 C   0  0  0  0  0  0  0  0  0  0  0  0
   18.6918    1.4471    0.1431 N   0  0  0  0  0  0  0  0  0  0  0  0
   20.0403    1.2447    0.1967 C   0  0  0  0  0  0  0  0  0  0  0  0
   20.6979    0.0243   -0.0075 C   0  0  0  0  0  0  0  0  0  0  0  0
   20.0082   -1.1793   -0.2038 C   0  0  0  0  0  0  0  0  0  0  0  0
   20.6555   -2.4289   -0.4549 C   0  0  0  0  0  0  0  0  0  0  0  0
   19.6874   -3.3767   -0.4628 C   0  0  0  0  0  0  0  0  0  0  0  0
   18.4486   -2.6994   -0.2262 C   0  0  0  0  0  0  0  0  0  0  0  0
   18.6590   -1.3470   -0.0994 N   0  0  0  0  0  0  0  0  0  0  0  0
   17.2347   -3.3480   -0.0694 C   0  0  0  0  0  0  0  0  0  0  0  0
   17.2145   -4.8370   -0.1164 C   0  0  0  0  0  0  0  0  0  0  0  0
   17.3686   -5.5707    1.0572 C   0  0  0  0  0  0  0  0  0  0  0  0
   17.3489   -6.9605    1.0126 C   0  0  0  0  0  0  0  0  0  0  0  0
   17.4978   -7.6895    2.1454 O   0  0  0  0  0  0  0  0  0  0  0  0
   17.1752   -7.6140   -0.2083 C   0  0  0  0  0  0  0  0  0  0  0  0
   17.1606   -8.9849   -0.2207 O   0  0  0  0  0  0  0  0  0  0  0  0
   17.0215   -6.8766   -1.3791 C   0  0  0  0  0  0  0  0  0  0  0  0
   16.8556   -7.5888   -2.5378 O   0  0  0  0  0  0  0  0  0  0  0  0
   17.0403   -5.4872   -1.3383 C   0  0  0  0  0  0  0  0  0  0  0  0
   16.0349   -2.6773    0.1198 C   0  0  0  0  0  0  0  0  0  0  0  0
   14.7695   -3.3333    0.2769 C   0  0  0  0  0  0  0  0  0  0  0  0
   13.8277   -2.3612    0.3088 C   0  0  0  0  0  0  0  0  0  0  0  0
   14.5202   -1.1143    0.1726 C   0  0  0  0  0  0  0  0  0  0  0  0
   15.8726   -1.3184    0.0938 N   0  0  0  0  0  0  0  0  0  0  0  0
   12.8043    0.1214    0.0769 H   0  0  0  0  0  0  0  0  0  0  0  0
   12.8101    2.6941   -0.2588 H   0  0  0  0  0  0  0  0  0  0  0  0
   14.7244    4.5938   -0.2563 H   0  0  0  0  0  0  0  0  0  0  0  0
   16.7456    5.1838   -1.9380 H   0  0  0  0  0  0  0  0  0  0  0  0
   16.7961    8.7422   -1.8939 H   0  0  0  0  0  0  0  0  0  0  0  0
   17.6538    9.4254    1.0544 H   0  0  0  0  0  0  0  0  0  0  0  0
   18.2471    7.1764    3.1757 H   0  0  0  0  0  0  0  0  0  0  0  0
   17.9321    5.0850    2.1971 H   0  0  0  0  0  0  0  0  0  0  0  0
   19.9300    4.5149    0.5425 H   0  0  0  0  0  0  0  0  0  0  0  0
   21.7953    2.5778    0.5121 H   0  0  0  0  0  0  0  0  0  0  0  0
   21.7152   -2.5518   -0.6052 H   0  0  0  0  0  0  0  0  0  0  0  0
   19.7872   -4.4395   -0.6132 H   0  0  0  0  0  0  0  0  0  0  0  0
   17.5044   -5.0705    2.0071 H   0  0  0  0  0  0  0  0  0  0  0  0
   17.4544   -8.6310    1.9097 H   0  0  0  0  0  0  0  0  0  0  0  0
   17.0319   -9.2736   -1.1382 H   0  0  0  0  0  0  0  0  0  0  0  0
   16.7604   -6.9961   -3.2949 H   0  0  0  0  0  0  0  0  0  0  0  0
   16.9198   -4.9159   -2.2511 H   0  0  0  0  0  0  0  0  0  0  0  0
   14.6383   -4.4014    0.3432 H   0  0  0  0  0  0  0  0  0  0  0  0
   12.7580   -2.4588    0.4058 H   0  0  0  0  0  0  0  0  0  0  0  0
   28.1446   -0.0663   -0.0303 Fe  0  0  0  0  0  0  0  0  0  0  0  0
   31.5372   -0.1138    0.0504 C   0  0  0  0  0  0  0  0  0  0  0  0
   30.8777   -1.2965   -0.2164 C   0  0  0  0  0  0  0  0  0  0  0  0
   31.5459   -2.5344   -0.4831 C   0  0  0  0  0  0  0  0  0  0  0  0
   30.5828   -3.4794   -0.5932 C   0  0  0  0  0  0  0  0  0  0  0  0
   29.3260   -2.8166   -0.3956 C   0  0  0  0  0  0  0  0  0  0  0  0
   29.5202   -1.4782   -0.1841 N   0  0  0  0  0  0  0  0  0  0  0  0
   28.1056   -3.4766   -0.2975 C   0  0  0  0  0  0  0  0  0  0  0  0
   28.0879   -4.9542   -0.4386 C   0  0  0  0  0  0  0  0  0  0  0  0
   28.4202   -5.5422   -1.6586 C   0  0  0  0  0  0  0  0  0  0  0  0
   28.3949   -6.9255   -1.7938 C   0  0  0  0  0  0  0  0  0  0  0  0
   28.7059   -7.5084   -2.9769 O   0  0  0  0  0  0  0  0  0  0  0  0
   28.0459   -7.7243   -0.7036 C   0  0  0  0  0  0  0  0  0  0  0  0
   28.0327   -9.0847   -0.8658 O   0  0  0  0  0  0  0  0  0  0  0  0
   27.7206   -7.1358    0.5160 C   0  0  0  0  0  0  0  0  0  0  0  0
   27.3939   -7.9847    1.5401 O   0  0  0  0  0  0  0  0  0  0  0  0
   27.7359   -5.7530    0.6520 C   0  0  0  0  0  0  0  0  0  0  0  0
   26.9052   -2.8177   -0.0693 C   0  0  0  0  0  0  0  0  0  0  0  0
   25.6392   -3.4792    0.0355 C   0  0  0  0  0  0  0  0  0  0  0  0
   24.6977   -2.5093    0.1223 C   0  0  0  0  0  0  0  0  0  0  0  0
   26.7337   -1.4540   -0.0218 N   0  0  0  0  0  0  0  0  0  0  0  0
   25.3853   -1.2589    0.0543 C   0  0  0  0  0  0  0  0  0  0  0  0
   24.7276   -0.0233   -0.0102 C   0  0  0  0  0  0  0  0  0  0  0  0
   25.4174    1.1948   -0.0688 C   0  0  0  0  0  0  0  0  0  0  0  0
   24.7700    2.4649   -0.1767 C   0  0  0  0  0  0  0  0  0  0  0  0
   25.7381    3.4074   -0.0771 C   0  0  0  0  0  0  0  0  0  0  0  0
   26.9770    2.7076    0.0813 C   0  0  0  0  0  0  0  0  0  0  0  0
   26.7665    1.3496    0.0539 N   0  0  0  0  0  0  0  0  0  0  0  0
   28.1908    3.3343    0.3105 C   0  0  0  0  0  0  0  0  0  0  0  0
   28.2110    4.8190    0.4327 C   0  0  0  0  0  0  0  0  0  0  0  0
   28.0569    5.4150    1.6818 C   0  0  0  0  0  0  0  0  0  0  0  0
   28.0766    6.8009    1.7950 C   0  0  0  0  0  0  0  0  0  0  0  0
   27.9277    7.3968    3.0032 O   0  0  0  0  0  0  0  0  0  0  0  0
   28.2503    7.5885    0.6561 C   0  0  0  0  0  0  0  0  0  0  0  0
   28.2650    8.9520    0.7991 O   0  0  0  0  0  0  0  0  0  0  0  0
   28.4040    6.9886   -0.5908 C   0  0  0  0  0  0  0  0  0  0  0  0
   28.5699    7.8275   -1.6613 O   0  0  0  0  0  0  0  0  0  0  0  0
   28.3853    5.6035   -0.7078 C   0  0  0  0  0  0  0  0  0  0  0  0
   29.3906    2.6465    0.4225 C   0  0  0  0  0  0  0  0  0  0  0  0
   30.6560    3.2804    0.6530 C   0  0  0  0  0  0  0  0  0  0  0  0
   31.5978    2.3110    0.5744 C   0  0  0  0  0  0  0  0  0  0  0  0
   30.9053    1.0876    0.2977 C   0  0  0  0  0  0  0  0  0  0  0  0
   29.5530    1.2992    0.2426 N   0  0  0  0  0  0  0  0  0  0  0  0
   32.6212   -0.1293    0.0627 H   0  0  0  0  0  0  0  0  0  0  0  0
   32.6155   -2.6474   -0.5625 H   0  0  0  0  0  0  0  0  0  0  0  0
   30.7012   -4.5351   -0.7753 H   0  0  0  0  0  0  0  0  0  0  0  0
   28.6799   -4.9308   -2.5131 H   0  0  0  0  0  0  0  0  0  0  0  0
   28.6294   -8.4712   -2.8725 H   0  0  0  0  0  0  0  0  0  0  0  0
   27.7717   -9.4841   -0.0208 H   0  0  0  0  0  0  0  0  0  0  0  0
   27.1784   -7.4901    2.3418 H   0  0  0  0  0  0  0  0  0  0  0  0
   27.4934   -5.3013    1.6066 H   0  0  0  0  0  0  0  0  0  0  0  0
   25.4956   -4.5473    0.0272 H   0  0  0  0  0  0  0  0  0  0  0  0
   23.6303   -2.6192    0.2166 H   0  0  0  0  0  0  0  0  0  0  0  0
   23.7103    2.6040   -0.3120 H   0  0  0  0  0  0  0  0  0  0  0  0
   25.6383    4.4804   -0.1060 H   0  0  0  0  0  0  0  0  0  0  0  0
   27.9211    4.8103    2.5689 H   0  0  0  0  0  0  0  0  0  0  0  0
   27.9711    8.3589    2.8757 H   0  0  0  0  0  0  0  0  0  0  0  0
   28.3936    9.3428   -0.0797 H   0  0  0  0  0  0  0  0  0  0  0  0
   28.6652    7.3244   -2.4807 H   0  0  0  0  0  0  0  0  0  0  0  0
   28.5058    5.1394   -1.6794 H   0  0  0  0  0  0  0  0  0  0  0  0
   30.7872    4.3342    0.8399 H   0  0  0  0  0  0  0  0  0  0  0  0
   32.6675    2.3969    0.6818 H   0  0  0  0  0  0  0  0  0  0  0  0
   22.1032    0.0080   -0.0168 C   0  0  0  0  0  0  0  0  0  0  0  0
   23.3224   -0.0061   -0.0176 C   0  0  0  0  0  0  0  0  0  0  0  0
  2  3  4  0  0  0  0
  3  4  4  0  0  0  0
  4  5  2  0  0  0  0
  5  6  4  0  0  0  0
  1  7  1  0  0  0  0
  3  7  4  0  0  0  0
  6  7  4  0  0  0  0
  6  8  4  0  0  0  0
  8  9  1  0  0  0  0
  9 10  4  0  0  0  0
 10 11  4  0  0  0  0
 11 12  1  0  0  0  0
 11 13  4  0  0  0  0
 13 14  1  0  0  0  0
 13 15  4  0  0  0  0
 15 16  1  0  0  0  0
  9 17  4  0  0  0  0
 15 17  4  0  0  0  0
  8 18  4  0  0  0  0
 18 19  4  0  0  0  0
 19 20  2  0  0  0  0
  1 21  1  0  0  0  0
 18 21  4  0  0  0  0
 20 22  4  0  0  0  0
 21 22  4  0  0  0  0
 22 23  4  0  0  0  0
 23 24  4  0  0  0  0
 24 25  4  0  0  0  0
 25 26  2  0  0  0  0
 26 27  4  0  0  0  0
  1 28  1  0  0  0  0
 24 28  4  0  0  0  0
 27 28  4  0  0  0  0
 27 29  4  0  0  0  0
 29 30  1  0  0  0  0
 30 31  4  0  0  0  0
 31 32  4  0  0  0  0
 32 33  1  0  0  0  0
 32 34  4  0  0  0  0
 34 35  1  0  0  0  0
 34 36  4  0  0  0  0
 36 37  1  0  0  0  0
 30 38  4  0  0  0  0
 36 38  4  0  0  0  0
 29 39  4  0  0  0  0
 39 40  4  0  0  0  0
 40 41  2  0  0  0  0
  2 42  4  0  0  0  0
 41 42  4  0  0  0  0
  1 43  1  0  0  0  0
 39 43  4  0  0  0  0
 42 43  4  0  0  0  0
  2 44  1  0  0  0  0
  4 45  1  0  0  0  0
  5 46  1  0  0  0  0
 10 47  1  0  0  0  0
 12 48  1  0  0  0  0
 14 49  1  0  0  0  0
 16 50  1  0  0  0  0
 17 51  1  0  0  0  0
 19 52  1  0  0  0  0
 20 53  1  0  0  0  0
 25 54  1  0  0  0  0
 26 55  1  0  0  0  0
 31 56  1  0  0  0  0
 33 57  1  0  0  0  0
 35 58  1  0  0  0  0
 37 59  1  0  0  0  0
 38 60  1  0  0  0  0
 40 61  1  0  0  0  0
 41 62  1  0  0  0  0
 64 65  4  0  0  0  0
 65 66  4  0  0  0  0
 66 67  2  0  0  0  0
 67 68  4  0  0  0  0
 63 69  1  0  0  0  0
 65 69  4  0  0  0  0
 68 69  4  0  0  0  0
 68 70  4  0  0  0  0
 70 71  1  0  0  0  0
 71 72  4  0  0  0  0
 72 73  4  0  0  0  0
 73 74  1  0  0  0  0
 73 75  4  0  0  0  0
 75 76  1  0  0  0  0
 75 77  4  0  0  0  0
 77 78  1  0  0  0  0
 71 79  4  0  0  0  0
 77 79  4  0  0  0  0
 70 80  4  0  0  0  0
 80 81  4  0  0  0  0
 81 82  2  0  0  0  0
 63 83  1  0  0  0  0
 80 83  4  0  0  0  0
 82 84  4  0  0  0  0
 83 84  4  0  0  0  0
 84 85  4  0  0  0  0
 85 86  4  0  0  0  0
 86 87  4  0  0  0  0
 87 88  2  0  0  0  0
 88 89  4  0  0  0  0
 63 90  1  0  0  0  0
 86 90  4  0  0  0  0
 89 90  4  0  0  0  0
 89 91  4  0  0  0  0
 91 92  1  0  0  0  0
 92 93  4  0  0  0  0
 93 94  4  0  0  0  0
 94 95  1  0  0  0  0
 94 96  4  0  0  0  0
 96 97  1  0  0  0  0
 96 98  4  0  0  0  0
 98 99  1  0  0  0  0
 92100  4  0  0  0  0
 98100  4  0  0  0  0
 91101  4  0  0  0  0
101102  4  0  0  0  0
102103  2  0  0  0  0
 64104  4  0  0  0  0
103104  4  0  0  0  0
 63105  1  0  0  0  0
101105  4  0  0  0  0
104105  4  0  0  0  0
 64106  1  0  0  0  0
 66107  1  0  0  0  0
 67108  1  0  0  0  0
 72109  1  0  0  0  0
 74110  1  0  0  0  0
 76111  1  0  0  0  0
 78112  1  0  0  0  0
 79113  1  0  0  0  0
 81114  1  0  0  0  0
 82115  1  0  0  0  0
 87116  1  0  0  0  0
 88117  1  0  0  0  0
 93118  1  0  0  0  0
 95119  1  0  0  0  0
 97120  1  0  0  0  0
 99121  1  0  0  0  0
100122  1  0  0  0  0
102123  1  0  0  0  0
103124  1  0  0  0  0
 23125  4  0  0  0  0
 85126  4  0  0  0  0
125126  3  0  0  0  0
M  END
