 xtb: 6.5.1 (b24c23e)
          07292217223D

197226  0     0  0            999 V2000
   29.1993    0.0636   -0.2320 Fe  0  0  0  0  0  0  0  0  0  0  0  0
   25.8163    0.1010   -0.1249 C   0  0  0  0  0  0  0  0  0  0  0  0
   26.4748    1.3136   -0.1448 C   0  0  0  0  0  0  0  0  0  0  0  0
   25.8113    2.5825   -0.1634 C   0  0  0  0  0  0  0  0  0  0  0  0
   26.7768    3.5270   -0.0696 C   0  0  0  0  0  0  0  0  0  0  0  0
   28.0285    2.8323    0.0264 C   0  0  0  0  0  0  0  0  0  0  0  0
   27.8327    1.4814   -0.0718 N   0  0  0  0  0  0  0  0  0  0  0  0
   29.2508    3.4506    0.2693 C   0  0  0  0  0  0  0  0  0  0  0  0
   29.2801    4.9193    0.4649 C   0  0  0  0  0  0  0  0  0  0  0  0
   28.5677    5.5142    1.5022 C   0  0  0  0  0  0  0  0  0  0  0  0
   28.6001    6.8969    1.6795 C   0  0  0  0  0  0  0  0  0  0  0  0
   27.8205    7.4724    2.8046 C   0  0  0  0  0  0  0  0  0  0  0  0
   27.9257    8.8055    2.9023 O   0  0  0  0  0  0  0  0  0  0  0  0
   27.1498    6.8258    3.5677 O   0  0  0  0  0  0  0  0  0  0  0  0
   29.3465    7.6960    0.8137 C   0  0  0  0  0  0  0  0  0  0  0  0
   30.0560    7.1059   -0.2205 C   0  0  0  0  0  0  0  0  0  0  0  0
   30.0265    5.7296   -0.3943 C   0  0  0  0  0  0  0  0  0  0  0  0
   30.4467    2.7495    0.3415 C   0  0  0  0  0  0  0  0  0  0  0  0
   31.7079    3.3417    0.6761 C   0  0  0  0  0  0  0  0  0  0  0  0
   32.6446    2.3728    0.5341 C   0  0  0  0  0  0  0  0  0  0  0  0
   30.6105    1.4172    0.0474 N   0  0  0  0  0  0  0  0  0  0  0  0
   31.9531    1.1929    0.1182 C   0  0  0  0  0  0  0  0  0  0  0  0
   32.6040    0.0158   -0.2740 C   0  0  0  0  0  0  0  0  0  0  0  0
   31.9132   -1.1390   -0.6634 C   0  0  0  0  0  0  0  0  0  0  0  0
   32.5616   -2.3277   -1.1214 C   0  0  0  0  0  0  0  0  0  0  0  0
   31.5922   -3.2607   -1.2828 C   0  0  0  0  0  0  0  0  0  0  0  0
   30.3554   -2.6408   -0.9091 C   0  0  0  0  0  0  0  0  0  0  0  0
   30.5656   -1.3231   -0.5786 N   0  0  0  0  0  0  0  0  0  0  0  0
   29.1420   -3.3089   -0.8240 C   0  0  0  0  0  0  0  0  0  0  0  0
   29.1141   -4.7675   -1.0862 C   0  0  0  0  0  0  0  0  0  0  0  0
   29.8582   -5.6441   -0.2933 C   0  0  0  0  0  0  0  0  0  0  0  0
   29.8322   -7.0106   -0.5347 C   0  0  0  0  0  0  0  0  0  0  0  0
   29.0674   -7.5182   -1.5717 C   0  0  0  0  0  0  0  0  0  0  0  0
   28.3203   -6.6521   -2.3716 C   0  0  0  0  0  0  0  0  0  0  0  0
   27.5141   -7.2352   -3.4735 C   0  0  0  0  0  0  0  0  0  0  0  0
   26.8235   -6.3238   -4.1738 O   0  0  0  0  0  0  0  0  0  0  0  0
   27.4674   -8.4105   -3.7323 O   0  0  0  0  0  0  0  0  0  0  0  0
   28.3428   -5.2807   -2.1268 C   0  0  0  0  0  0  0  0  0  0  0  0
   27.9502   -2.6692   -0.4976 C   0  0  0  0  0  0  0  0  0  0  0  0
   26.6918   -3.3400   -0.3400 C   0  0  0  0  0  0  0  0  0  0  0  0
   25.7588   -2.3796   -0.1388 C   0  0  0  0  0  0  0  0  0  0  0  0
   26.4484   -1.1250   -0.1662 C   0  0  0  0  0  0  0  0  0  0  0  0
   27.7934   -1.3189   -0.3436 N   0  0  0  0  0  0  0  0  0  0  0  0
   24.7330    0.1123   -0.0844 H   0  0  0  0  0  0  0  0  0  0  0  0
   24.7437    2.7135   -0.2400 H   0  0  0  0  0  0  0  0  0  0  0  0
   26.6636    4.5989   -0.0634 H   0  0  0  0  0  0  0  0  0  0  0  0
   27.9933    4.9077    2.1939 H   0  0  0  0  0  0  0  0  0  0  0  0
   27.3908    9.1026    3.6563 H   0  0  0  0  0  0  0  0  0  0  0  0
   29.3682    8.7702    0.9517 H   0  0  0  0  0  0  0  0  0  0  0  0
   30.6361    7.7212   -0.8989 H   0  0  0  0  0  0  0  0  0  0  0  0
   30.5742    5.2751   -1.2123 H   0  0  0  0  0  0  0  0  0  0  0  0
   31.8477    4.3644    0.9863 H   0  0  0  0  0  0  0  0  0  0  0  0
   33.7095    2.4377    0.6889 H   0  0  0  0  0  0  0  0  0  0  0  0
   33.6220   -2.4214   -1.2920 H   0  0  0  0  0  0  0  0  0  0  0  0
   31.6953   -4.2771   -1.6263 H   0  0  0  0  0  0  0  0  0  0  0  0
   30.4476   -5.2495    0.5268 H   0  0  0  0  0  0  0  0  0  0  0  0
   30.4113   -7.6793    0.0918 H   0  0  0  0  0  0  0  0  0  0  0  0
   29.0368   -8.5826   -1.7750 H   0  0  0  0  0  0  0  0  0  0  0  0
   26.3268   -6.7822   -4.8710 H   0  0  0  0  0  0  0  0  0  0  0  0
   27.7721   -4.6090   -2.7571 H   0  0  0  0  0  0  0  0  0  0  0  0
   26.5535   -4.4084   -0.3767 H   0  0  0  0  0  0  0  0  0  0  0  0
   24.6968   -2.4908    0.0117 H   0  0  0  0  0  0  0  0  0  0  0  0
   61.0152    0.1135   -0.1023 Fe  0  0  0  0  0  0  0  0  0  0  0  0
   64.4027    0.0910   -0.2303 C   0  0  0  0  0  0  0  0  0  0  0  0
   63.7361   -1.0639   -0.5842 C   0  0  0  0  0  0  0  0  0  0  0  0
   64.3929   -2.2520   -1.0394 C   0  0  0  0  0  0  0  0  0  0  0  0
   63.4284   -3.1852   -1.2156 C   0  0  0  0  0  0  0  0  0  0  0  0
   62.1850   -2.5707   -0.8479 C   0  0  0  0  0  0  0  0  0  0  0  0
   62.3824   -1.2608   -0.5043 N   0  0  0  0  0  0  0  0  0  0  0  0
   60.9691   -3.2438   -0.7941 C   0  0  0  0  0  0  0  0  0  0  0  0
   60.9457   -4.6911   -1.1144 C   0  0  0  0  0  0  0  0  0  0  0  0
   61.6799   -5.5986   -0.3562 C   0  0  0  0  0  0  0  0  0  0  0  0
   61.6598   -6.9578   -0.6665 C   0  0  0  0  0  0  0  0  0  0  0  0
   62.4658   -7.8758    0.1775 C   0  0  0  0  0  0  0  0  0  0  0  0
   62.3769   -9.1613   -0.1933 O   0  0  0  0  0  0  0  0  0  0  0  0
   63.1450   -7.5238    1.1076 O   0  0  0  0  0  0  0  0  0  0  0  0
   60.9026   -7.4183   -1.7435 C   0  0  0  0  0  0  0  0  0  0  0  0
   60.1703   -6.5165   -2.4995 C   0  0  0  0  0  0  0  0  0  0  0  0
   60.1886   -5.1642   -2.1889 C   0  0  0  0  0  0  0  0  0  0  0  0
   59.7769   -2.6214   -0.4518 C   0  0  0  0  0  0  0  0  0  0  0  0
   58.5251   -3.3060   -0.3188 C   0  0  0  0  0  0  0  0  0  0  0  0
   57.5875   -2.3606   -0.0686 C   0  0  0  0  0  0  0  0  0  0  0  0
   59.6080   -1.2741   -0.2384 N   0  0  0  0  0  0  0  0  0  0  0  0
   58.2698   -1.1048   -0.0419 C   0  0  0  0  0  0  0  0  0  0  0  0
   57.6092    0.1236    0.0855 C   0  0  0  0  0  0  0  0  0  0  0  0
   58.2851    1.3491    0.1396 C   0  0  0  0  0  0  0  0  0  0  0  0
   57.6154    2.6093    0.2253 C   0  0  0  0  0  0  0  0  0  0  0  0
   58.5798    3.5545    0.3333 C   0  0  0  0  0  0  0  0  0  0  0  0
   59.8361    2.8652    0.3244 C   0  0  0  0  0  0  0  0  0  0  0  0
   59.6375    1.5136    0.1703 N   0  0  0  0  0  0  0  0  0  0  0  0
   61.0630    3.4885    0.4960 C   0  0  0  0  0  0  0  0  0  0  0  0
   61.0888    4.9532    0.7300 C   0  0  0  0  0  0  0  0  0  0  0  0
   60.5090    5.5005    1.8761 C   0  0  0  0  0  0  0  0  0  0  0  0
   60.5346    6.8712    2.0940 C   0  0  0  0  0  0  0  0  0  0  0  0
   61.1312    7.7107    1.1682 C   0  0  0  0  0  0  0  0  0  0  0  0
   61.7108    7.1750    0.0171 C   0  0  0  0  0  0  0  0  0  0  0  0
   62.3335    8.1086   -0.9550 C   0  0  0  0  0  0  0  0  0  0  0  0
   62.8575    7.4966   -2.0268 O   0  0  0  0  0  0  0  0  0  0  0  0
   62.3747    9.3043   -0.8173 O   0  0  0  0  0  0  0  0  0  0  0  0
   61.6928    5.7984   -0.1979 C   0  0  0  0  0  0  0  0  0  0  0  0
   62.2725    2.8036    0.4573 C   0  0  0  0  0  0  0  0  0  0  0  0
   63.5477    3.4160    0.6960 C   0  0  0  0  0  0  0  0  0  0  0  0
   64.4839    2.4572    0.5039 C   0  0  0  0  0  0  0  0  0  0  0  0
   63.7797    1.2614    0.1501 C   0  0  0  0  0  0  0  0  0  0  0  0
   62.4264    1.4776    0.1581 N   0  0  0  0  0  0  0  0  0  0  0  0
   65.4862    0.0821   -0.2667 H   0  0  0  0  0  0  0  0  0  0  0  0
   65.4555   -2.3399   -1.2009 H   0  0  0  0  0  0  0  0  0  0  0  0
   63.5370   -4.1998   -1.5628 H   0  0  0  0  0  0  0  0  0  0  0  0
   62.2637   -5.2606    0.4930 H   0  0  0  0  0  0  0  0  0  0  0  0
   62.9303   -9.6927    0.4020 H   0  0  0  0  0  0  0  0  0  0  0  0
   60.8908   -8.4743   -1.9848 H   0  0  0  0  0  0  0  0  0  0  0  0
   59.5817   -6.8672   -3.3397 H   0  0  0  0  0  0  0  0  0  0  0  0
   59.6241   -4.4621   -2.7922 H   0  0  0  0  0  0  0  0  0  0  0  0
   58.3923   -4.3726   -0.3995 H   0  0  0  0  0  0  0  0  0  0  0  0
   56.5280   -2.4864    0.0859 H   0  0  0  0  0  0  0  0  0  0  0  0
   56.5453    2.7384    0.2039 H   0  0  0  0  0  0  0  0  0  0  0  0
   58.4619    4.6231    0.4091 H   0  0  0  0  0  0  0  0  0  0  0  0
   60.0487    4.8433    2.6053 H   0  0  0  0  0  0  0  0  0  0  0  0
   60.0861    7.2824    2.9912 H   0  0  0  0  0  0  0  0  0  0  0  0
   61.1568    8.7837    1.3213 H   0  0  0  0  0  0  0  0  0  0  0  0
   63.2390    8.1714   -2.6116 H   0  0  0  0  0  0  0  0  0  0  0  0
   62.1358    5.3843   -1.0959 H   0  0  0  0  0  0  0  0  0  0  0  0
   63.6931    4.4461    0.9784 H   0  0  0  0  0  0  0  0  0  0  0  0
   65.5565    2.5342    0.5843 H   0  0  0  0  0  0  0  0  0  0  0  0
   37.7968    0.0571   -0.4431 C   0  0  0  0  0  0  0  0  0  0  0  0
   36.5679    0.0244   -0.3801 C   0  0  0  0  0  0  0  0  0  0  0  0
   35.2289    0.0064   -0.3282 C   0  0  0  0  0  0  0  0  0  0  0  0
   34.0032    0.0030   -0.2975 C   0  0  0  0  0  0  0  0  0  0  0  0
   39.1324    0.1120   -0.5339 C   0  0  0  0  0  0  0  0  0  0  0  0
   40.3528    0.1791   -0.6361 C   0  0  0  0  0  0  0  0  0  0  0  0
   53.6443    0.1704    0.0838 C   0  0  0  0  0  0  0  0  0  0  0  0
   52.4159    0.1989    0.0102 C   0  0  0  0  0  0  0  0  0  0  0  0
   51.0825    0.2378   -0.1170 C   0  0  0  0  0  0  0  0  0  0  0  0
   49.8664    0.2789   -0.2710 C   0  0  0  0  0  0  0  0  0  0  0  0
   54.9839    0.1467    0.1246 C   0  0  0  0  0  0  0  0  0  0  0  0
   56.2099    0.1306    0.1263 C   0  0  0  0  0  0  0  0  0  0  0  0
   45.1245    0.4087   -0.9174 Fe  0  0  0  0  0  0  0  0  0  0  0  0
   41.7418    0.2673   -0.7664 C   0  0  0  0  0  0  0  0  0  0  0  0
   42.4201   -0.7536   -1.4512 C   0  0  0  0  0  0  0  0  0  0  0  0
   41.7585   -1.8008   -2.1634 C   0  0  0  0  0  0  0  0  0  0  0  0
   42.7294   -2.5602   -2.7280 C   0  0  0  0  0  0  0  0  0  0  0  0
   43.9820   -2.0057   -2.3083 C   0  0  0  0  0  0  0  0  0  0  0  0
   43.7706   -0.8633   -1.5728 N   0  0  0  0  0  0  0  0  0  0  0  0
   45.2154   -2.6184   -2.4879 C   0  0  0  0  0  0  0  0  0  0  0  0
   45.2848   -3.8975   -3.2319 C   0  0  0  0  0  0  0  0  0  0  0  0
   44.5736   -5.0163   -2.8083 C   0  0  0  0  0  0  0  0  0  0  0  0
   44.6461   -6.2114   -3.5229 C   0  0  0  0  0  0  0  0  0  0  0  0
   43.8580   -7.3673   -3.0244 C   0  0  0  0  0  0  0  0  0  0  0  0
   43.9989   -8.4724   -3.7695 O   0  0  0  0  0  0  0  0  0  0  0  0
   43.1507   -7.3368   -2.0503 O   0  0  0  0  0  0  0  0  0  0  0  0
   45.4363   -6.2945   -4.6690 C   0  0  0  0  0  0  0  0  0  0  0  0
   46.1517   -5.1836   -5.0884 C   0  0  0  0  0  0  0  0  0  0  0  0
   46.0806   -3.9950   -4.3763 C   0  0  0  0  0  0  0  0  0  0  0  0
   46.3915   -2.1208   -1.9339 C   0  0  0  0  0  0  0  0  0  0  0  0
   47.6251   -2.8455   -1.8793 C   0  0  0  0  0  0  0  0  0  0  0  0
   48.5190   -2.0479   -1.2435 C   0  0  0  0  0  0  0  0  0  0  0  0
   46.5320   -0.8972   -1.3329 N   0  0  0  0  0  0  0  0  0  0  0  0
   47.8364   -0.8291   -0.9413 C   0  0  0  0  0  0  0  0  0  0  0  0
   48.4862    0.3285   -0.4896 C   0  0  0  0  0  0  0  0  0  0  0  0
   47.8295    1.5633   -0.3665 C   0  0  0  0  0  0  0  0  0  0  0  0
   48.5091    2.8008   -0.1459 C   0  0  0  0  0  0  0  0  0  0  0  0
   47.5580    3.7669   -0.1168 C   0  0  0  0  0  0  0  0  0  0  0  0
   46.2962    3.1065   -0.2693 C   0  0  0  0  0  0  0  0  0  0  0  0
   46.4872    1.7603   -0.4719 N   0  0  0  0  0  0  0  0  0  0  0  0
   45.0618    3.7186   -0.0951 C   0  0  0  0  0  0  0  0  0  0  0  0
   45.0093    5.1718    0.1929 C   0  0  0  0  0  0  0  0  0  0  0  0
   44.3447    6.0289   -0.6870 C   0  0  0  0  0  0  0  0  0  0  0  0
   44.2845    7.3921   -0.4344 C   0  0  0  0  0  0  0  0  0  0  0  0
   44.8766    7.9135    0.7038 C   0  0  0  0  0  0  0  0  0  0  0  0
   45.5341    7.0651    1.5956 C   0  0  0  0  0  0  0  0  0  0  0  0
   46.1443    7.6622    2.8108 C   0  0  0  0  0  0  0  0  0  0  0  0
   46.7498    6.7660    3.6026 O   0  0  0  0  0  0  0  0  0  0  0  0
   46.1116    8.8356    3.0792 O   0  0  0  0  0  0  0  0  0  0  0  0
   45.6021    5.6972    1.3384 C   0  0  0  0  0  0  0  0  0  0  0  0
   43.8623    3.0140   -0.1051 C   0  0  0  0  0  0  0  0  0  0  0  0
   42.6066    3.5584    0.3153 C   0  0  0  0  0  0  0  0  0  0  0  0
   41.6934    2.5617    0.2079 C   0  0  0  0  0  0  0  0  0  0  0  0
   42.3882    1.4253   -0.3106 C   0  0  0  0  0  0  0  0  0  0  0  0
   43.7142    1.7002   -0.4671 N   0  0  0  0  0  0  0  0  0  0  0  0
   40.6888   -1.9152   -2.2336 H   0  0  0  0  0  0  0  0  0  0  0  0
   42.6135   -3.4245   -3.3611 H   0  0  0  0  0  0  0  0  0  0  0  0
   43.9703   -4.9776   -1.9080 H   0  0  0  0  0  0  0  0  0  0  0  0
   43.4538   -9.1771   -3.3831 H   0  0  0  0  0  0  0  0  0  0  0  0
   45.4890   -7.2233   -5.2240 H   0  0  0  0  0  0  0  0  0  0  0  0
   46.7690   -5.2414   -5.9776 H   0  0  0  0  0  0  0  0  0  0  0  0
   46.6341   -3.1261   -4.7145 H   0  0  0  0  0  0  0  0  0  0  0  0
   47.7731   -3.8433   -2.2590 H   0  0  0  0  0  0  0  0  0  0  0  0
   49.5529   -2.2470   -1.0123 H   0  0  0  0  0  0  0  0  0  0  0  0
   49.5775    2.9055   -0.0467 H   0  0  0  0  0  0  0  0  0  0  0  0
   47.6907    4.8290    0.0090 H   0  0  0  0  0  0  0  0  0  0  0  0
   43.8850    5.6206   -1.5801 H   0  0  0  0  0  0  0  0  0  0  0  0
   43.7716    8.0468   -1.1296 H   0  0  0  0  0  0  0  0  0  0  0  0
   44.8362    8.9754    0.9186 H   0  0  0  0  0  0  0  0  0  0  0  0
   47.1182    7.2318    4.3710 H   0  0  0  0  0  0  0  0  0  0  0  0
   46.0993    5.0387    2.0406 H   0  0  0  0  0  0  0  0  0  0  0  0
   42.4575    4.5661    0.6677 H   0  0  0  0  0  0  0  0  0  0  0  0
   40.6397    2.5868    0.4344 H   0  0  0  0  0  0  0  0  0  0  0  0
  2  3  4  0  0  0  0
  3  4  4  0  0  0  0
  4  5  2  0  0  0  0
  5  6  4  0  0  0  0
  1  7  1  0  0  0  0
  3  7  4  0  0  0  0
  6  7  4  0  0  0  0
  6  8  4  0  0  0  0
  8  9  1  0  0  0  0
  9 10  4  0  0  0  0
 10 11  4  0  0  0  0
 11 12  1  0  0  0  0
 12 13  4  0  0  0  0
 12 14  2  0  0  0  0
 11 15  4  0  0  0  0
 15 16  4  0  0  0  0
  9 17  4  0  0  0  0
 16 17  4  0  0  0  0
  8 18  4  0  0  0  0
 18 19  4  0  0  0  0
 19 20  2  0  0  0  0
  1 21  1  0  0  0  0
 18 21  4  0  0  0  0
 20 22  4  0  0  0  0
 21 22  4  0  0  0  0
 22 23  4  0  0  0  0
 23 24  4  0  0  0  0
 24 25  4  0  0  0  0
 25 26  2  0  0  0  0
 26 27  4  0  0  0  0
  1 28  1  0  0  0  0
 24 28  4  0  0  0  0
 27 28  4  0  0  0  0
 27 29  4  0  0  0  0
 29 30  1  0  0  0  0
 30 31  4  0  0  0  0
 31 32  4  0  0  0  0
 32 33  4  0  0  0  0
 33 34  4  0  0  0  0
 34 35  1  0  0  0  0
 35 36  4  0  0  0  0
 35 37  2  0  0  0  0
 30 38  4  0  0  0  0
 34 38  4  0  0  0  0
 29 39  4  0  0  0  0
 39 40  4  0  0  0  0
 40 41  2  0  0  0  0
  2 42  4  0  0  0  0
 41 42  4  0  0  0  0
  1 43  1  0  0  0  0
 39 43  4  0  0  0  0
 42 43  4  0  0  0  0
  2 44  1  0  0  0  0
  4 45  1  0  0  0  0
  5 46  1  0  0  0  0
 10 47  1  0  0  0  0
 13 48  1  0  0  0  0
 15 49  1  0  0  0  0
 16 50  1  0  0  0  0
 17 51  1  0  0  0  0
 19 52  1  0  0  0  0
 20 53  1  0  0  0  0
 25 54  1  0  0  0  0
 26 55  1  0  0  0  0
 31 56  1  0  0  0  0
 32 57  1  0  0  0  0
 33 58  1  0  0  0  0
 36 59  1  0  0  0  0
 38 60  1  0  0  0  0
 40 61  1  0  0  0  0
 41 62  1  0  0  0  0
 64 65  4  0  0  0  0
 65 66  4  0  0  0  0
 66 67  2  0  0  0  0
 67 68  4  0  0  0  0
 63 69  1  0  0  0  0
 65 69  4  0  0  0  0
 68 69  4  0  0  0  0
 68 70  4  0  0  0  0
 70 71  1  0  0  0  0
 71 72  4  0  0  0  0
 72 73  4  0  0  0  0
 73 74  1  0  0  0  0
 74 75  4  0  0  0  0
 74 76  2  0  0  0  0
 73 77  4  0  0  0  0
 77 78  4  0  0  0  0
 71 79  4  0  0  0  0
 78 79  4  0  0  0  0
 70 80  4  0  0  0  0
 80 81  4  0  0  0  0
 81 82  2  0  0  0  0
 63 83  1  0  0  0  0
 80 83  4  0  0  0  0
 82 84  4  0  0  0  0
 83 84  4  0  0  0  0
 84 85  4  0  0  0  0
 85 86  4  0  0  0  0
 86 87  4  0  0  0  0
 87 88  2  0  0  0  0
 88 89  4  0  0  0  0
 63 90  1  0  0  0  0
 86 90  4  0  0  0  0
 89 90  4  0  0  0  0
 89 91  4  0  0  0  0
 91 92  1  0  0  0  0
 92 93  4  0  0  0  0
 93 94  4  0  0  0  0
 94 95  4  0  0  0  0
 95 96  4  0  0  0  0
 96 97  1  0  0  0  0
 97 98  4  0  0  0  0
 97 99  2  0  0  0  0
 92100  4  0  0  0  0
 96100  4  0  0  0  0
 91101  4  0  0  0  0
101102  4  0  0  0  0
102103  2  0  0  0  0
 64104  4  0  0  0  0
103104  4  0  0  0  0
 63105  1  0  0  0  0
101105  4  0  0  0  0
104105  4  0  0  0  0
 64106  1  0  0  0  0
 66107  1  0  0  0  0
 67108  1  0  0  0  0
 72109  1  0  0  0  0
 75110  1  0  0  0  0
 77111  1  0  0  0  0
 78112  1  0  0  0  0
 79113  1  0  0  0  0
 81114  1  0  0  0  0
 82115  1  0  0  0  0
 87116  1  0  0  0  0
 88117  1  0  0  0  0
 93118  1  0  0  0  0
 94119  1  0  0  0  0
 95120  1  0  0  0  0
 98121  1  0  0  0  0
100122  1  0  0  0  0
102123  1  0  0  0  0
103124  1  0  0  0  0
125126  3  0  0  0  0
126127  4  0  0  0  0
 23128  4  0  0  0  0
127128  3  0  0  0  0
125129  4  0  0  0  0
129130  3  0  0  0  0
131132  3  0  0  0  0
132133  4  0  0  0  0
133134  3  0  0  0  0
131135  4  0  0  0  0
 85136  4  0  0  0  0
135136  3  0  0  0  0
130138  4  0  0  0  0
138139  4  0  0  0  0
139140  4  0  0  0  0
140141  2  0  0  0  0
141142  4  0  0  0  0
137143  1  0  0  0  0
139143  4  0  0  0  0
142143  4  0  0  0  0
142144  4  0  0  0  0
144145  1  0  0  0  0
145146  4  0  0  0  0
146147  4  0  0  0  0
147148  1  0  0  0  0
148149  4  0  0  0  0
148150  2  0  0  0  0
147151  4  0  0  0  0
151152  4  0  0  0  0
145153  4  0  0  0  0
152153  4  0  0  0  0
144154  4  0  0  0  0
154155  4  0  0  0  0
155156  2  0  0  0  0
137157  1  0  0  0  0
154157  4  0  0  0  0
156158  4  0  0  0  0
157158  4  0  0  0  0
134159  4  0  0  0  0
158159  4  0  0  0  0
159160  4  0  0  0  0
160161  4  0  0  0  0
161162  2  0  0  0  0
162163  4  0  0  0  0
137164  1  0  0  0  0
160164  4  0  0  0  0
163164  4  0  0  0  0
163165  4  0  0  0  0
165166  1  0  0  0  0
166167  4  0  0  0  0
167168  4  0  0  0  0
168169  4  0  0  0  0
169170  4  0  0  0  0
170171  1  0  0  0  0
171172  4  0  0  0  0
171173  2  0  0  0  0
166174  4  0  0  0  0
170174  4  0  0  0  0
165175  4  0  0  0  0
175176  4  0  0  0  0
176177  2  0  0  0  0
138178  4  0  0  0  0
177178  4  0  0  0  0
137179  1  0  0  0  0
175179  4  0  0  0  0
178179  4  0  0  0  0
140180  1  0  0  0  0
141181  1  0  0  0  0
146182  1  0  0  0  0
149183  1  0  0  0  0
151184  1  0  0  0  0
152185  1  0  0  0  0
153186  1  0  0  0  0
155187  1  0  0  0  0
156188  1  0  0  0  0
161189  1  0  0  0  0
162190  1  0  0  0  0
167191  1  0  0  0  0
168192  1  0  0  0  0
169193  1  0  0  0  0
172194  1  0  0  0  0
174195  1  0  0  0  0
176196  1  0  0  0  0
177197  1  0  0  0  0
M  END
