185

Co 30.508832 -0.018811 -0.005987
C 27.170835 0.104344 0.066091
C 27.832810 1.253788 0.227013
C 27.181940 2.551095 0.364188
C 28.121909 3.461753 0.536875
C 29.426986 2.786337 0.530878
N 29.250200 1.384319 0.323794
C 30.618920 3.392191 0.712532
C 30.668130 4.850656 0.964802
C 30.185451 5.379799 2.172510
C 30.248405 6.755645 2.412995
C 30.799240 7.612190 1.451334
C 30.865252 9.028412 1.700047
N 30.918311 10.166988 1.900094
C 31.288348 7.087187 0.248400
C 31.225031 5.711530 0.006607
C 31.910353 2.656467 0.681016
C 33.193694 3.241546 1.088310
C 34.128496 2.331652 0.903500
N 32.053382 1.434621 0.267425
C 33.448712 1.153917 0.378315
C 34.043272 0.011883 -0.003456
C 33.280059 -1.148208 -0.514884
C 33.810977 -2.140727 -1.217740
C 32.768361 -3.126524 -1.427235
C 31.670453 -2.672631 -0.833720
N 31.903849 -1.399307 -0.229814
C 30.391959 -3.423968 -0.747598
C 30.415218 -4.889507 -0.975140
C 29.731047 -5.453549 -2.064585
C 29.772929 -6.833546 -2.284949
C 30.504584 -7.660422 -1.423343
C 30.548599 -9.080985 -1.651380
N 30.584023 -10.223068 -1.834635
C 31.196315 -7.101473 -0.341426
C 31.154398 -5.721646 -0.119708
C 29.229638 -2.804834 -0.464914
C 27.922350 -3.442600 -0.317936
C 27.060369 -2.467648 -0.102540
C 27.808578 -1.211670 -0.097631
N 29.073604 -1.395991 -0.307884
H 26.087475 0.132170 0.056734
H 26.118589 2.750236 0.326980
H 27.933874 4.520509 0.658135
H 29.763145 4.726020 2.925781
H 29.870321 7.150701 3.348296
H 31.719177 7.740332 -0.500941
H 31.608077 5.316301 -0.926273
H 33.364362 4.237648 1.475093
H 35.182274 2.463649 1.109723
H 34.836746 -2.221126 -1.551773
H 32.877475 -4.068982 -1.948106
H 29.169693 -4.823499 -2.743617
H 29.238205 -7.254781 -3.127807
H 31.768236 -7.731468 0.329247
H 31.694767 -5.301079 0.719606
H 27.680754 -4.496068 -0.369067
H 25.995751 -2.590525 0.047310
Co 63.945381 0.042396 -0.007645
C 67.283377 -0.076677 0.070994
C 66.621403 -1.215723 0.293907
C 67.272273 -2.503702 0.501112
C 66.332304 -3.403675 0.722846
C 65.027227 -2.729575 0.680294
N 65.204013 -1.340823 0.397612
C 63.835293 -3.324706 0.894480
C 63.786083 -4.767375 1.225336
C 64.268762 -5.230361 2.459919
C 64.205808 -6.591171 2.774534
C 63.654973 -7.498520 1.860653
C 63.588961 -8.899201 2.185671
N 63.535902 -10.025277 2.447063
C 63.165865 -7.039409 0.631062
C 63.229182 -5.678860 0.315150
C 62.543860 -2.591767 0.823181
C 61.260518 -3.153939 1.261551
C 60.325717 -2.255384 1.027754
N 62.400831 -1.394103 0.344050
C 61.005501 -1.107808 0.439581
C 60.410941 0.011883 -0.003456
C 61.174154 1.142587 -0.576937
C 60.643236 2.095601 -1.332494
C 61.685852 3.068611 -1.595049
C 62.783760 2.647514 -0.977832
N 62.550364 1.408750 -0.305879
C 64.062254 3.402411 -0.932511
C 64.038995 4.853483 -1.239059
C 64.723165 5.357720 -2.357441
C 64.681283 6.723763 -2.652190
C 63.949629 7.596070 -1.836612
C 63.905613 9.002205 -2.141218
N 63.870190 10.132692 -2.386033
C 63.257898 7.096512 -0.726022
C 63.299815 5.730711 -0.429930
C 65.224575 2.799489 -0.616724
C 66.531863 3.444277 -0.504488
C 67.393844 2.482415 -0.236627
C 66.645634 1.228545 -0.163731
N 65.380609 1.401212 -0.383654
H 68.366738 -0.104968 0.063158
H 68.335624 -2.704565 0.474740
H 66.520339 -4.454314 0.901246
H 64.691068 -4.536762 3.176692
H 64.583892 -6.935013 3.729851
H 62.735035 -7.732164 -0.081821
H 62.846135 -5.334713 -0.637758
H 61.089851 -4.127641 1.701692
H 59.271939 -2.376023 1.240820
H 59.617467 2.157798 -1.670389
H 61.576738 3.981488 -2.166177
H 65.284519 4.691833 -3.001369
H 65.216008 7.098750 -3.516616
H 62.685977 7.761891 -0.090439
H 62.759446 5.356198 0.430921
H 66.773459 4.493432 -0.612575
H 68.458462 2.613224 -0.093649
C 40.050182 0.013101 0.005002
C 38.841243 -0.000354 -0.003445
C 37.419714 0.008465 -0.015428
C 36.208044 0.015904 -0.004565
C 41.466786 0.006426 0.005535
C 42.687482 0.015904 -0.004565
C 55.611802 0.013101 0.005002
C 54.402863 -0.000354 -0.003445
C 52.981334 0.008465 -0.015428
C 51.769665 0.015904 -0.004565
C 57.028407 0.006426 0.005535
C 58.249103 0.015904 -0.004565
Co 47.210254 0.019188 -0.015568
C 43.773710 -0.027532 0.007995
C 44.429279 -1.136969 -0.379905
C 43.788556 -2.408016 -0.723691
C 44.725054 -3.255179 -1.101724
C 46.022199 -2.575357 -1.026029
N 45.844263 -1.235354 -0.560202
C 47.206626 -3.131187 -1.359318
C 47.242229 -4.514538 -1.887903
C 46.720995 -4.802748 -3.159375
C 46.769767 -6.106911 -3.660820
C 47.344325 -7.131560 -2.898055
C 47.395678 -8.473859 -3.415244
N 47.437092 -9.553008 -3.831046
C 47.871127 -6.846679 -1.631876
C 47.822062 -5.542974 -1.129164
C 48.503578 -2.421905 -1.215892
C 49.772196 -2.918407 -1.764395
C 50.724409 -2.084787 -1.397642
N 48.671355 -1.324984 -0.545053
C 50.069515 -1.044749 -0.614888
C 50.684526 -0.027532 0.007995
C 49.933567 1.000230 0.758834
C 50.466309 1.804551 1.669804
C 49.434037 2.741748 2.070899
C 48.342611 2.447744 1.373525
N 48.567957 1.332500 0.513072
C 47.089425 3.239697 1.400042
C 47.151587 4.647195 1.865064
C 46.442357 5.053222 3.007624
C 46.519122 6.376726 3.451487
C 47.310584 7.303856 2.762154
C 47.389437 8.666340 3.219684
N 47.452804 9.761739 3.587496
C 48.027528 6.901558 1.628378
C 47.951007 5.578363 1.183316
C 45.917942 2.712559 0.994494
C 44.642658 3.416843 0.908957
C 43.754571 2.521469 0.527692
C 44.451701 1.241486 0.360364
N 45.716234 1.347303 0.628194
H 42.733872 -2.644888 -0.682248
H 44.538817 -4.277398 -1.404335
H 46.279635 -4.017004 -3.760198
H 46.362033 -6.315651 -4.642603
H 48.319902 -7.631214 -1.034524
H 48.233765 -5.333861 -0.149342
H 49.921794 -3.807857 -2.362244
H 51.773711 -2.181540 -1.642922
H 51.488164 1.793164 2.024674
H 49.548437 3.554649 2.776292
H 45.834279 4.343475 3.555051
H 45.964244 6.675938 4.332644
H 48.645411 7.609795 1.089514
H 48.510895 5.279393 0.305578
H 44.439061 4.461688 1.103348
H 42.704470 2.722674 0.364288
