 xtb: 6.5.1 (b24c23e)
          07302208473D

185214  0     0  0            999 V2000
   31.2722    0.0295    0.0485 Co  0  0  0  0  0  0  0  0  0  0  0  0
   27.9028    0.0335    0.1832 C   0  0  0  0  0  0  0  0  0  0  0  0
   28.5569    1.2442    0.1013 C   0  0  0  0  0  0  0  0  0  0  0  0
   27.8946    2.5110    0.0311 C   0  0  0  0  0  0  0  0  0  0  0  0
   28.8545    3.4583    0.1506 C   0  0  0  0  0  0  0  0  0  0  0  0
   30.1004    2.7674    0.3127 C   0  0  0  0  0  0  0  0  0  0  0  0
   29.9146    1.4127    0.2099 N   0  0  0  0  0  0  0  0  0  0  0  0
   31.2975    3.3815    0.6582 C   0  0  0  0  0  0  0  0  0  0  0  0
   31.3142    4.8381    0.9180 C   0  0  0  0  0  0  0  0  0  0  0  0
   30.5126    5.3906    1.9198 C   0  0  0  0  0  0  0  0  0  0  0  0
   30.5330    6.7513    2.1678 C   0  0  0  0  0  0  0  0  0  0  0  0
   31.3554    7.5899    1.4094 C   0  0  0  0  0  0  0  0  0  0  0  0
   31.3768    8.9910    1.6601 C   0  0  0  0  0  0  0  0  0  0  0  0
   31.3947   10.1236    1.8621 N   0  0  0  0  0  0  0  0  0  0  0  0
   32.1574    7.0422    0.4037 C   0  0  0  0  0  0  0  0  0  0  0  0
   32.1371    5.6798    0.1658 C   0  0  0  0  0  0  0  0  0  0  0  0
   32.4792    2.6647    0.7784 C   0  0  0  0  0  0  0  0  0  0  0  0
   33.7229    3.2271    1.2117 C   0  0  0  0  0  0  0  0  0  0  0  0
   34.6675    2.2727    1.0303 C   0  0  0  0  0  0  0  0  0  0  0  0
   32.6522    1.3531    0.4009 N   0  0  0  0  0  0  0  0  0  0  0  0
   33.9975    1.1310    0.4935 C   0  0  0  0  0  0  0  0  0  0  0  0
   34.6634    0.0099   -0.0094 C   0  0  0  0  0  0  0  0  0  0  0  0
   33.9693   -1.0952   -0.5100 C   0  0  0  0  0  0  0  0  0  0  0  0
   34.6070   -2.2295   -1.0992 C   0  0  0  0  0  0  0  0  0  0  0  0
   33.6419   -3.1611   -1.2912 C   0  0  0  0  0  0  0  0  0  0  0  0
   32.4201   -2.5965   -0.8017 C   0  0  0  0  0  0  0  0  0  0  0  0
   32.6239   -1.2995   -0.3888 N   0  0  0  0  0  0  0  0  0  0  0  0
   31.2382   -3.3055   -0.6468 C   0  0  0  0  0  0  0  0  0  0  0  0
   31.2205   -4.7525   -0.9560 C   0  0  0  0  0  0  0  0  0  0  0  0
   30.3507   -5.2593   -1.9245 C   0  0  0  0  0  0  0  0  0  0  0  0
   30.3341   -6.6109   -2.2183 C   0  0  0  0  0  0  0  0  0  0  0  0
   31.1871   -7.4863   -1.5394 C   0  0  0  0  0  0  0  0  0  0  0  0
   31.1714   -8.8783   -1.8371 C   0  0  0  0  0  0  0  0  0  0  0  0
   31.1611  -10.0038   -2.0768 N   0  0  0  0  0  0  0  0  0  0  0  0
   32.0562   -6.9847   -0.5660 C   0  0  0  0  0  0  0  0  0  0  0  0
   32.0724   -5.6310   -0.2822 C   0  0  0  0  0  0  0  0  0  0  0  0
   30.0718   -2.6966   -0.2005 C   0  0  0  0  0  0  0  0  0  0  0  0
   28.8412   -3.3900    0.0456 C   0  0  0  0  0  0  0  0  0  0  0  0
   27.9010   -2.4458    0.2853 C   0  0  0  0  0  0  0  0  0  0  0  0
   28.5596   -1.1783    0.1932 C   0  0  0  0  0  0  0  0  0  0  0  0
   29.9019   -1.3459   -0.0409 N   0  0  0  0  0  0  0  0  0  0  0  0
   26.8204    0.0340    0.2326 H   0  0  0  0  0  0  0  0  0  0  0  0
   26.8306    2.6380   -0.0893 H   0  0  0  0  0  0  0  0  0  0  0  0
   28.7424    4.5303    0.1368 H   0  0  0  0  0  0  0  0  0  0  0  0
   29.8837    4.7421    2.5191 H   0  0  0  0  0  0  0  0  0  0  0  0
   29.9138    7.1719    2.9514 H   0  0  0  0  0  0  0  0  0  0  0  0
   32.7938    7.6896   -0.1882 H   0  0  0  0  0  0  0  0  0  0  0  0
   32.7521    5.2600   -0.6222 H   0  0  0  0  0  0  0  0  0  0  0  0
   33.8456    4.2235    1.6037 H   0  0  0  0  0  0  0  0  0  0  0  0
   35.7261    2.3247    1.2272 H   0  0  0  0  0  0  0  0  0  0  0  0
   35.6592   -2.2910   -1.3257 H   0  0  0  0  0  0  0  0  0  0  0  0
   33.7383   -4.1447   -1.7213 H   0  0  0  0  0  0  0  0  0  0  0  0
   29.6964   -4.5820   -2.4615 H   0  0  0  0  0  0  0  0  0  0  0  0
   29.6616   -6.9959   -2.9759 H   0  0  0  0  0  0  0  0  0  0  0  0
   32.7154   -7.6610   -0.0346 H   0  0  0  0  0  0  0  0  0  0  0  0
   32.7388   -5.2476    0.4821 H   0  0  0  0  0  0  0  0  0  0  0  0
   28.7258   -4.4617    0.0327 H   0  0  0  0  0  0  0  0  0  0  0  0
   26.8515   -2.5748    0.4965 H   0  0  0  0  0  0  0  0  0  0  0  0
   63.1835    0.0066    0.0736 Co  0  0  0  0  0  0  0  0  0  0  0  0
   66.5566    0.0087    0.2120 C   0  0  0  0  0  0  0  0  0  0  0  0
   65.9024   -1.2042    0.2093 C   0  0  0  0  0  0  0  0  0  0  0  0
   66.5676   -2.4714    0.2234 C   0  0  0  0  0  0  0  0  0  0  0  0
   65.6078   -3.4123    0.3831 C   0  0  0  0  0  0  0  0  0  0  0  0
   64.3584   -2.7162    0.4867 C   0  0  0  0  0  0  0  0  0  0  0  0
   64.5436   -1.3682    0.3116 N   0  0  0  0  0  0  0  0  0  0  0  0
   63.1577   -3.3163    0.8395 C   0  0  0  0  0  0  0  0  0  0  0  0
   63.1394   -4.7604    1.1643 C   0  0  0  0  0  0  0  0  0  0  0  0
   63.9119   -5.2622    2.2143 C   0  0  0  0  0  0  0  0  0  0  0  0
   63.8903   -6.6105    2.5227 C   0  0  0  0  0  0  0  0  0  0  0  0
   63.0960   -7.4873    1.7777 C   0  0  0  0  0  0  0  0  0  0  0  0
   63.0734   -8.8757    2.0910 C   0  0  0  0  0  0  0  0  0  0  0  0
   63.0548   -9.9975    2.3467 N   0  0  0  0  0  0  0  0  0  0  0  0
   62.3232   -6.9903    0.7239 C   0  0  0  0  0  0  0  0  0  0  0  0
   62.3443   -5.6398    0.4257 C   0  0  0  0  0  0  0  0  0  0  0  0
   61.9729   -2.5983    0.9104 C   0  0  0  0  0  0  0  0  0  0  0  0
   60.7268   -3.1485    1.3520 C   0  0  0  0  0  0  0  0  0  0  0  0
   59.7824   -2.2025    1.1330 C   0  0  0  0  0  0  0  0  0  0  0  0
   61.8014   -1.3015    0.4850 N   0  0  0  0  0  0  0  0  0  0  0  0
   60.4542   -1.0776    0.5635 C   0  0  0  0  0  0  0  0  0  0  0  0
   59.7884    0.0282    0.0324 C   0  0  0  0  0  0  0  0  0  0  0  0
   60.4788    1.1158   -0.5053 C   0  0  0  0  0  0  0  0  0  0  0  0
   59.8351    2.2302   -1.1250 C   0  0  0  0  0  0  0  0  0  0  0  0
   60.8007    3.1472   -1.3741 C   0  0  0  0  0  0  0  0  0  0  0  0
   62.0294    2.5950   -0.8882 C   0  0  0  0  0  0  0  0  0  0  0  0
   61.8281    1.3183   -0.4157 N   0  0  0  0  0  0  0  0  0  0  0  0
   63.2191    3.3023   -0.8002 C   0  0  0  0  0  0  0  0  0  0  0  0
   63.2387    4.7300   -1.1913 C   0  0  0  0  0  0  0  0  0  0  0  0
   64.0738    5.1698   -2.2210 C   0  0  0  0  0  0  0  0  0  0  0  0
   64.0913    6.5019   -2.5934 C   0  0  0  0  0  0  0  0  0  0  0  0
   63.2747    7.4249   -1.9331 C   0  0  0  0  0  0  0  0  0  0  0  0
   63.2910    8.7968   -2.3127 C   0  0  0  0  0  0  0  0  0  0  0  0
   63.3030    9.9055   -2.6208 N   0  0  0  0  0  0  0  0  0  0  0  0
   62.4416    6.9907   -0.8978 C   0  0  0  0  0  0  0  0  0  0  0  0
   62.4238    5.6558   -0.5357 C   0  0  0  0  0  0  0  0  0  0  0  0
   64.3906    2.7129   -0.3449 C   0  0  0  0  0  0  0  0  0  0  0  0
   65.6270    3.4156   -0.1619 C   0  0  0  0  0  0  0  0  0  0  0  0
   66.5655    2.4861    0.1335 C   0  0  0  0  0  0  0  0  0  0  0  0
   65.9012    1.2182    0.1355 C   0  0  0  0  0  0  0  0  0  0  0  0
   64.5574    1.3742   -0.0990 N   0  0  0  0  0  0  0  0  0  0  0  0
   67.6389    0.0110    0.2641 H   0  0  0  0  0  0  0  0  0  0  0  0
   67.6335   -2.6024    0.1257 H   0  0  0  0  0  0  0  0  0  0  0  0
   65.7215   -4.4830    0.4333 H   0  0  0  0  0  0  0  0  0  0  0  0
   64.5191   -4.5835    2.8026 H   0  0  0  0  0  0  0  0  0  0  0  0
   64.4867   -6.9917    3.3434 H   0  0  0  0  0  0  0  0  0  0  0  0
   61.7088   -7.6677    0.1424 H   0  0  0  0  0  0  0  0  0  0  0  0
   61.7515   -5.2592   -0.3984 H   0  0  0  0  0  0  0  0  0  0  0  0
   60.6032   -4.1320    1.7754 H   0  0  0  0  0  0  0  0  0  0  0  0
   58.7226   -2.2493    1.3245 H   0  0  0  0  0  0  0  0  0  0  0  0
   58.7788    2.2888   -1.3322 H   0  0  0  0  0  0  0  0  0  0  0  0
   60.7005    4.1136   -1.8405 H   0  0  0  0  0  0  0  0  0  0  0  0
   64.7002    4.4549   -2.7425 H   0  0  0  0  0  0  0  0  0  0  0  0
   64.7361    6.8346   -3.3983 H   0  0  0  0  0  0  0  0  0  0  0  0
   61.8112    7.7043   -0.3804 H   0  0  0  0  0  0  0  0  0  0  0  0
   61.7849    5.3247    0.2752 H   0  0  0  0  0  0  0  0  0  0  0  0
   65.7462    4.4832   -0.2511 H   0  0  0  0  0  0  0  0  0  0  0  0
   67.6177    2.6241    0.3249 H   0  0  0  0  0  0  0  0  0  0  0  0
   39.8616   -0.0152   -0.0400 C   0  0  0  0  0  0  0  0  0  0  0  0
   38.6322   -0.0164   -0.0367 C   0  0  0  0  0  0  0  0  0  0  0  0
   37.2896   -0.0111   -0.0292 C   0  0  0  0  0  0  0  0  0  0  0  0
   36.0651   -0.0012   -0.0224 C   0  0  0  0  0  0  0  0  0  0  0  0
   41.2039   -0.0123   -0.0458 C   0  0  0  0  0  0  0  0  0  0  0  0
   42.4288   -0.0076   -0.0468 C   0  0  0  0  0  0  0  0  0  0  0  0
   55.8152    0.0471    0.0140 C   0  0  0  0  0  0  0  0  0  0  0  0
   54.5870    0.0468    0.0079 C   0  0  0  0  0  0  0  0  0  0  0  0
   53.2425    0.0441    0.0005 C   0  0  0  0  0  0  0  0  0  0  0  0
   52.0186    0.0421   -0.0083 C   0  0  0  0  0  0  0  0  0  0  0  0
   57.1601    0.0445    0.0208 C   0  0  0  0  0  0  0  0  0  0  0  0
   58.3836    0.0393    0.0251 C   0  0  0  0  0  0  0  0  0  0  0  0
   47.2225    0.0094   -0.0104 Co  0  0  0  0  0  0  0  0  0  0  0  0
   43.8294    0.0005   -0.0484 C   0  0  0  0  0  0  0  0  0  0  0  0
   44.5191   -1.2056   -0.2101 C   0  0  0  0  0  0  0  0  0  0  0  0
   43.8788   -2.4761   -0.3337 C   0  0  0  0  0  0  0  0  0  0  0  0
   44.8407   -3.3622   -0.6911 C   0  0  0  0  0  0  0  0  0  0  0  0
   46.0628   -2.6241   -0.7940 C   0  0  0  0  0  0  0  0  0  0  0  0
   45.8625   -1.3127   -0.4318 N   0  0  0  0  0  0  0  0  0  0  0  0
   47.2453   -3.1294   -1.3171 C   0  0  0  0  0  0  0  0  0  0  0  0
   47.2579   -4.5022   -1.8680 C   0  0  0  0  0  0  0  0  0  0  0  0
   46.4017   -4.8540   -2.9143 C   0  0  0  0  0  0  0  0  0  0  0  0
   46.4146   -6.1358   -3.4341 C   0  0  0  0  0  0  0  0  0  0  0  0
   47.2835   -7.0967   -2.9084 C   0  0  0  0  0  0  0  0  0  0  0  0
   47.2975   -8.4178   -3.4387 C   0  0  0  0  0  0  0  0  0  0  0  0
   47.3095   -9.4856   -3.8675 N   0  0  0  0  0  0  0  0  0  0  0  0
   48.1389   -6.7509   -1.8581 C   0  0  0  0  0  0  0  0  0  0  0  0
   48.1263   -5.4652   -1.3482 C   0  0  0  0  0  0  0  0  0  0  0  0
   48.4185   -2.3865   -1.3328 C   0  0  0  0  0  0  0  0  0  0  0  0
   49.6519   -2.8354   -1.9044 C   0  0  0  0  0  0  0  0  0  0  0  0
   50.6021   -1.9438   -1.5308 C   0  0  0  0  0  0  0  0  0  0  0  0
   48.5983   -1.1857   -0.6872 N   0  0  0  0  0  0  0  0  0  0  0  0
   49.9432   -0.9489   -0.7459 C   0  0  0  0  0  0  0  0  0  0  0  0
   50.6156    0.0377   -0.0195 C   0  0  0  0  0  0  0  0  0  0  0  0
   49.9254    1.0209    0.6951 C   0  0  0  0  0  0  0  0  0  0  0  0
   50.5636    2.0226    1.4878 C   0  0  0  0  0  0  0  0  0  0  0  0
   49.6011    2.9101    1.8403 C   0  0  0  0  0  0  0  0  0  0  0  0
   48.3809    2.4500    1.2502 C   0  0  0  0  0  0  0  0  0  0  0  0
   48.5818    1.2534    0.6047 N   0  0  0  0  0  0  0  0  0  0  0  0
   47.1997    3.1802    1.2166 C   0  0  0  0  0  0  0  0  0  0  0  0
   47.1899    4.5531    1.7672 C   0  0  0  0  0  0  0  0  0  0  0  0
   46.3200    4.8930    2.8062 C   0  0  0  0  0  0  0  0  0  0  0  0
   46.3127    6.1739    3.3280 C   0  0  0  0  0  0  0  0  0  0  0  0
   47.1749    7.1459    2.8119 C   0  0  0  0  0  0  0  0  0  0  0  0
   47.1680    8.4661    3.3446 C   0  0  0  0  0  0  0  0  0  0  0  0
   47.1634    9.5326    3.7766 N   0  0  0  0  0  0  0  0  0  0  0  0
   48.0444    6.8119    1.7693 C   0  0  0  0  0  0  0  0  0  0  0  0
   48.0520    5.5270    1.2574 C   0  0  0  0  0  0  0  0  0  0  0  0
   46.0283    2.6577    0.6865 C   0  0  0  0  0  0  0  0  0  0  0  0
   44.7961    3.3788    0.5797 C   0  0  0  0  0  0  0  0  0  0  0  0
   43.8460    2.4775    0.2302 C   0  0  0  0  0  0  0  0  0  0  0  0
   44.5039    1.2153    0.1113 C   0  0  0  0  0  0  0  0  0  0  0  0
   45.8474    1.3434    0.3217 N   0  0  0  0  0  0  0  0  0  0  0  0
   42.8270   -2.6500   -0.1734 H   0  0  0  0  0  0  0  0  0  0  0  0
   44.7415   -4.4202   -0.8714 H   0  0  0  0  0  0  0  0  0  0  0  0
   45.7353   -4.1083   -3.3328 H   0  0  0  0  0  0  0  0  0  0  0  0
   45.7529   -6.3995   -4.2507 H   0  0  0  0  0  0  0  0  0  0  0  0
   48.8105   -7.4944   -1.4451 H   0  0  0  0  0  0  0  0  0  0  0  0
   48.7823   -5.2041   -0.5255 H   0  0  0  0  0  0  0  0  0  0  0  0
   49.7660   -3.7206   -2.5084 H   0  0  0  0  0  0  0  0  0  0  0  0
   51.6572   -1.9501   -1.7514 H   0  0  0  0  0  0  0  0  0  0  0  0
   51.6145    2.0364    1.7279 H   0  0  0  0  0  0  0  0  0  0  0  0
   49.6987    3.7980    2.4434 H   0  0  0  0  0  0  0  0  0  0  0  0
   45.6590    4.1385    3.2176 H   0  0  0  0  0  0  0  0  0  0  0  0
   45.6403    6.4281    4.1389 H   0  0  0  0  0  0  0  0  0  0  0  0
   48.7111    7.5640    1.3641 H   0  0  0  0  0  0  0  0  0  0  0  0
   48.7193    5.2748    0.4410 H   0  0  0  0  0  0  0  0  0  0  0  0
   44.6826    4.4361    0.7554 H   0  0  0  0  0  0  0  0  0  0  0  0
   42.7915    2.6357    0.0721 H   0  0  0  0  0  0  0  0  0  0  0  0
  2  3  4  0  0  0  0
  3  4  1  0  0  0  0
  4  5  2  0  0  0  0
  5  6  4  0  0  0  0
  1  7  1  0  0  0  0
  3  7  4  0  0  0  0
  6  7  4  0  0  0  0
  6  8  4  0  0  0  0
  8  9  1  0  0  0  0
  9 10  4  0  0  0  0
 10 11  4  0  0  0  0
 11 12  4  0  0  0  0
 12 13  1  0  0  0  0
 13 14  3  0  0  0  0
 12 15  4  0  0  0  0
  9 16  4  0  0  0  0
 15 16  4  0  0  0  0
  8 17  4  0  0  0  0
 17 18  4  0  0  0  0
 18 19  2  0  0  0  0
  1 20  1  0  0  0  0
 17 20  4  0  0  0  0
 19 21  4  0  0  0  0
 20 21  4  0  0  0  0
 21 22  4  0  0  0  0
 22 23  4  0  0  0  0
 23 24  4  0  0  0  0
 24 25  2  0  0  0  0
 25 26  4  0  0  0  0
  1 27  1  0  0  0  0
 23 27  4  0  0  0  0
 26 27  4  0  0  0  0
 26 28  4  0  0  0  0
 28 29  1  0  0  0  0
 29 30  4  0  0  0  0
 30 31  4  0  0  0  0
 31 32  4  0  0  0  0
 32 33  1  0  0  0  0
 33 34  3  0  0  0  0
 32 35  4  0  0  0  0
 29 36  4  0  0  0  0
 35 36  4  0  0  0  0
 28 37  4  0  0  0  0
 37 38  4  0  0  0  0
 38 39  2  0  0  0  0
  2 40  4  0  0  0  0
 39 40  1  0  0  0  0
  1 41  1  0  0  0  0
 37 41  4  0  0  0  0
 40 41  4  0  0  0  0
  2 42  1  0  0  0  0
  4 43  1  0  0  0  0
  5 44  1  0  0  0  0
 10 45  1  0  0  0  0
 11 46  1  0  0  0  0
 15 47  1  0  0  0  0
 16 48  1  0  0  0  0
 18 49  1  0  0  0  0
 19 50  1  0  0  0  0
 24 51  1  0  0  0  0
 25 52  1  0  0  0  0
 30 53  1  0  0  0  0
 31 54  1  0  0  0  0
 35 55  1  0  0  0  0
 36 56  1  0  0  0  0
 38 57  1  0  0  0  0
 39 58  1  0  0  0  0
 60 61  4  0  0  0  0
 61 62  1  0  0  0  0
 62 63  2  0  0  0  0
 63 64  4  0  0  0  0
 59 65  1  0  0  0  0
 61 65  4  0  0  0  0
 64 65  4  0  0  0  0
 64 66  4  0  0  0  0
 66 67  1  0  0  0  0
 67 68  4  0  0  0  0
 68 69  4  0  0  0  0
 69 70  4  0  0  0  0
 70 71  1  0  0  0  0
 71 72  3  0  0  0  0
 70 73  4  0  0  0  0
 67 74  4  0  0  0  0
 73 74  4  0  0  0  0
 66 75  4  0  0  0  0
 75 76  4  0  0  0  0
 76 77  2  0  0  0  0
 59 78  1  0  0  0  0
 75 78  4  0  0  0  0
 77 79  4  0  0  0  0
 78 79  4  0  0  0  0
 79 80  4  0  0  0  0
 80 81  4  0  0  0  0
 81 82  4  0  0  0  0
 82 83  2  0  0  0  0
 83 84  4  0  0  0  0
 59 85  1  0  0  0  0
 81 85  4  0  0  0  0
 84 85  4  0  0  0  0
 84 86  4  0  0  0  0
 86 87  1  0  0  0  0
 87 88  4  0  0  0  0
 88 89  4  0  0  0  0
 89 90  4  0  0  0  0
 90 91  1  0  0  0  0
 91 92  3  0  0  0  0
 90 93  4  0  0  0  0
 87 94  4  0  0  0  0
 93 94  4  0  0  0  0
 86 95  4  0  0  0  0
 95 96  4  0  0  0  0
 96 97  2  0  0  0  0
 60 98  4  0  0  0  0
 97 98  1  0  0  0  0
 59 99  1  0  0  0  0
 95 99  4  0  0  0  0
 98 99  4  0  0  0  0
 60100  1  0  0  0  0
 62101  1  0  0  0  0
 63102  1  0  0  0  0
 68103  1  0  0  0  0
 69104  1  0  0  0  0
 73105  1  0  0  0  0
 74106  1  0  0  0  0
 76107  1  0  0  0  0
 77108  1  0  0  0  0
 82109  1  0  0  0  0
 83110  1  0  0  0  0
 88111  1  0  0  0  0
 89112  1  0  0  0  0
 93113  1  0  0  0  0
 94114  1  0  0  0  0
 96115  1  0  0  0  0
 97116  1  0  0  0  0
117118  3  0  0  0  0
118119  4  0  0  0  0
 22120  4  0  0  0  0
119120  3  0  0  0  0
117121  4  0  0  0  0
121122  3  0  0  0  0
123124  3  0  0  0  0
124125  4  0  0  0  0
125126  3  0  0  0  0
123127  4  0  0  0  0
 80128  4  0  0  0  0
127128  3  0  0  0  0
122130  4  0  0  0  0
130131  4  0  0  0  0
131132  4  0  0  0  0
132133  2  0  0  0  0
133134  4  0  0  0  0
129135  1  0  0  0  0
131135  4  0  0  0  0
134135  4  0  0  0  0
134136  4  0  0  0  0
136137  1  0  0  0  0
137138  4  0  0  0  0
138139  4  0  0  0  0
139140  4  0  0  0  0
140141  1  0  0  0  0
141142  3  0  0  0  0
140143  4  0  0  0  0
137144  4  0  0  0  0
143144  4  0  0  0  0
136145  4  0  0  0  0
145146  4  0  0  0  0
146147  2  0  0  0  0
129148  1  0  0  0  0
145148  4  0  0  0  0
147149  4  0  0  0  0
148149  4  0  0  0  0
126150  4  0  0  0  0
149150  4  0  0  0  0
150151  4  0  0  0  0
151152  4  0  0  0  0
152153  2  0  0  0  0
153154  4  0  0  0  0
129155  1  0  0  0  0
151155  4  0  0  0  0
154155  4  0  0  0  0
154156  4  0  0  0  0
156157  1  0  0  0  0
157158  4  0  0  0  0
158159  4  0  0  0  0
159160  4  0  0  0  0
160161  1  0  0  0  0
161162  3  0  0  0  0
160163  4  0  0  0  0
157164  4  0  0  0  0
163164  4  0  0  0  0
156165  4  0  0  0  0
165166  4  0  0  0  0
166167  2  0  0  0  0
130168  4  0  0  0  0
167168  4  0  0  0  0
129169  1  0  0  0  0
165169  4  0  0  0  0
168169  4  0  0  0  0
132170  1  0  0  0  0
133171  1  0  0  0  0
138172  1  0  0  0  0
139173  1  0  0  0  0
143174  1  0  0  0  0
144175  1  0  0  0  0
146176  1  0  0  0  0
147177  1  0  0  0  0
152178  1  0  0  0  0
153179  1  0  0  0  0
158180  1  0  0  0  0
159181  1  0  0  0  0
163182  1  0  0  0  0
164183  1  0  0  0  0
166184  1  0  0  0  0
167185  1  0  0  0  0
M  END
