 xtb: 6.5.1 (b24c23e)
          07302207163D

252291  0     0  0            999 V2000
   51.2979    0.1975   -0.8218 Cu  0  0  0  0  0  0  0  0  0  0  0  0
   47.8952    0.0526   -0.6852 C   0  0  0  0  0  0  0  0  0  0  0  0
   48.4708    1.3107   -0.5949 C   0  0  0  0  0  0  0  0  0  0  0  0
   47.7361    2.5383   -0.4821 C   0  0  0  0  0  0  0  0  0  0  0  0
   48.6472    3.5410   -0.4346 C   0  0  0  0  0  0  0  0  0  0  0  0
   49.9485    2.9330   -0.5069 C   0  0  0  0  0  0  0  0  0  0  0  0
   49.8101    1.5788   -0.6081 N   0  0  0  0  0  0  0  0  0  0  0  0
   51.1604    3.6263   -0.5071 C   0  0  0  0  0  0  0  0  0  0  0  0
   51.1004    5.1047   -0.3775 C   0  0  0  0  0  0  0  0  0  0  0  0
   50.5845    5.6924    0.7737 C   0  0  0  0  0  0  0  0  0  0  0  0
   50.5262    7.0804    0.8941 C   0  0  0  0  0  0  0  0  0  0  0  0
   49.9678    7.6469    2.1476 C   0  0  0  0  0  0  0  0  0  0  0  0
   49.9578    8.9876    2.1719 O   0  0  0  0  0  0  0  0  0  0  0  0
   49.5564    6.9875    3.0677 O   0  0  0  0  0  0  0  0  0  0  0  0
   50.9828    7.8919   -0.1443 C   0  0  0  0  0  0  0  0  0  0  0  0
   51.4956    7.3089   -1.2924 C   0  0  0  0  0  0  0  0  0  0  0  0
   51.5567    5.9273   -1.4099 C   0  0  0  0  0  0  0  0  0  0  0  0
   52.4227    3.0407   -0.6199 C   0  0  0  0  0  0  0  0  0  0  0  0
   53.6657    3.7567   -0.5743 C   0  0  0  0  0  0  0  0  0  0  0  0
   54.6575    2.8387   -0.6977 C   0  0  0  0  0  0  0  0  0  0  0  0
   52.6778    1.7022   -0.7606 N   0  0  0  0  0  0  0  0  0  0  0  0
   54.0309    1.5560   -0.8081 C   0  0  0  0  0  0  0  0  0  0  0  0
   54.7265    0.3426   -0.9477 C   0  0  0  0  0  0  0  0  0  0  0  0
   54.1267   -0.9252   -1.0431 C   0  0  0  0  0  0  0  0  0  0  0  0
   54.8497   -2.1506   -1.2047 C   0  0  0  0  0  0  0  0  0  0  0  0
   53.9326   -3.1483   -1.2685 C   0  0  0  0  0  0  0  0  0  0  0  0
   52.6399   -2.5399   -1.1306 C   0  0  0  0  0  0  0  0  0  0  0  0
   52.7907   -1.1847   -0.9979 N   0  0  0  0  0  0  0  0  0  0  0  0
   51.4268   -3.2300   -1.1568 C   0  0  0  0  0  0  0  0  0  0  0  0
   51.4820   -4.7066   -1.3078 C   0  0  0  0  0  0  0  0  0  0  0  0
   52.0885   -5.4998   -0.3317 C   0  0  0  0  0  0  0  0  0  0  0  0
   52.1410   -6.8796   -0.4744 C   0  0  0  0  0  0  0  0  0  0  0  0
   51.5918   -7.4837   -1.5929 C   0  0  0  0  0  0  0  0  0  0  0  0
   50.9827   -6.7015   -2.5755 C   0  0  0  0  0  0  0  0  0  0  0  0
   50.4069   -7.3855   -3.7601 C   0  0  0  0  0  0  0  0  0  0  0  0
   49.8379   -6.5484   -4.6403 O   0  0  0  0  0  0  0  0  0  0  0  0
   50.4335   -8.5766   -3.9371 O   0  0  0  0  0  0  0  0  0  0  0  0
   50.9274   -5.3167   -2.4306 C   0  0  0  0  0  0  0  0  0  0  0  0
   50.1644   -2.6421   -1.0540 C   0  0  0  0  0  0  0  0  0  0  0  0
   48.9181   -3.3587   -1.0256 C   0  0  0  0  0  0  0  0  0  0  0  0
   47.9320   -2.4377   -0.8926 C   0  0  0  0  0  0  0  0  0  0  0  0
   48.5666   -1.1521   -0.8297 C   0  0  0  0  0  0  0  0  0  0  0  0
   49.9202   -1.3048   -0.9295 N   0  0  0  0  0  0  0  0  0  0  0  0
   46.8120    0.0061   -0.6398 H   0  0  0  0  0  0  0  0  0  0  0  0
   46.6602    2.6094   -0.4532 H   0  0  0  0  0  0  0  0  0  0  0  0
   48.4621    4.6008   -0.3663 H   0  0  0  0  0  0  0  0  0  0  0  0
   50.2353    5.0770    1.5957 H   0  0  0  0  0  0  0  0  0  0  0  0
   49.5812    9.2776    3.0187 H   0  0  0  0  0  0  0  0  0  0  0  0
   50.9345    8.9700   -0.0503 H   0  0  0  0  0  0  0  0  0  0  0  0
   51.8493    7.9337   -2.1048 H   0  0  0  0  0  0  0  0  0  0  0  0
   51.9482    5.4776   -2.3156 H   0  0  0  0  0  0  0  0  0  0  0  0
   53.7641    4.8231   -0.4509 H   0  0  0  0  0  0  0  0  0  0  0  0
   55.7217    3.0086   -0.7119 H   0  0  0  0  0  0  0  0  0  0  0  0
   55.9228   -2.2312   -1.2625 H   0  0  0  0  0  0  0  0  0  0  0  0
   54.1122   -4.2022   -1.4062 H   0  0  0  0  0  0  0  0  0  0  0  0
   52.5088   -5.0299    0.5504 H   0  0  0  0  0  0  0  0  0  0  0  0
   52.6123   -7.4829    0.2930 H   0  0  0  0  0  0  0  0  0  0  0  0
   51.6255   -8.5597   -1.7209 H   0  0  0  0  0  0  0  0  0  0  0  0
   49.4885   -7.0712   -5.3801 H   0  0  0  0  0  0  0  0  0  0  0  0
   50.4652   -4.7102   -3.2005 H   0  0  0  0  0  0  0  0  0  0  0  0
   48.8189   -4.4304   -1.0880 H   0  0  0  0  0  0  0  0  0  0  0  0
   46.8675   -2.6005   -0.8325 H   0  0  0  0  0  0  0  0  0  0  0  0
   84.0145    0.2747   -0.6379 Cu  0  0  0  0  0  0  0  0  0  0  0  0
   87.4190    0.1524   -0.5375 C   0  0  0  0  0  0  0  0  0  0  0  0
   86.7573   -1.0441   -0.7685 C   0  0  0  0  0  0  0  0  0  0  0  0
   87.4047   -2.3005   -1.0181 C   0  0  0  0  0  0  0  0  0  0  0  0
   86.4254   -3.2215   -1.1928 C   0  0  0  0  0  0  0  0  0  0  0  0
   85.1697   -2.5383   -1.0352 C   0  0  0  0  0  0  0  0  0  0  0  0
   85.4025   -1.2156   -0.7897 N   0  0  0  0  0  0  0  0  0  0  0  0
   83.9104   -3.1352   -1.1216 C   0  0  0  0  0  0  0  0  0  0  0  0
   83.8588   -4.6001   -1.3531 C   0  0  0  0  0  0  0  0  0  0  0  0
   84.4299   -5.4867   -0.4447 C   0  0  0  0  0  0  0  0  0  0  0  0
   84.3817   -6.8616   -0.6723 C   0  0  0  0  0  0  0  0  0  0  0  0
   85.0094   -7.7552    0.3333 C   0  0  0  0  0  0  0  0  0  0  0  0
   84.9070   -9.0578    0.0312 O   0  0  0  0  0  0  0  0  0  0  0  0
   85.5666   -7.3720    1.3299 O   0  0  0  0  0  0  0  0  0  0  0  0
   83.7601   -7.3600   -1.8172 C   0  0  0  0  0  0  0  0  0  0  0  0
   83.1904   -6.4795   -2.7234 C   0  0  0  0  0  0  0  0  0  0  0  0
   83.2369   -5.1116   -2.4951 C   0  0  0  0  0  0  0  0  0  0  0  0
   82.6922   -2.4603   -1.0109 C   0  0  0  0  0  0  0  0  0  0  0  0
   81.4043   -3.0930   -0.9943 C   0  0  0  0  0  0  0  0  0  0  0  0
   80.4793   -2.1067   -0.8778 C   0  0  0  0  0  0  0  0  0  0  0  0
   82.5315   -1.1060   -0.8884 N   0  0  0  0  0  0  0  0  0  0  0  0
   81.1921   -0.8666   -0.8231 C   0  0  0  0  0  0  0  0  0  0  0  0
   80.5828    0.3976   -0.7369 C   0  0  0  0  0  0  0  0  0  0  0  0
   81.2736    1.6151   -0.6079 C   0  0  0  0  0  0  0  0  0  0  0  0
   80.6477    2.9024   -0.5855 C   0  0  0  0  0  0  0  0  0  0  0  0
   81.6331    3.8214   -0.4235 C   0  0  0  0  0  0  0  0  0  0  0  0
   82.8710    3.0997   -0.3453 C   0  0  0  0  0  0  0  0  0  0  0  0
   82.6213    1.7593   -0.4735 N   0  0  0  0  0  0  0  0  0  0  0  0
   84.1271    3.6875   -0.1812 C   0  0  0  0  0  0  0  0  0  0  0  0
   84.1724    5.1584    0.0147 C   0  0  0  0  0  0  0  0  0  0  0  0
   83.5537    5.7447    1.1211 C   0  0  0  0  0  0  0  0  0  0  0  0
   83.5963    7.1192    1.3092 C   0  0  0  0  0  0  0  0  0  0  0  0
   84.2522    7.9254    0.3939 C   0  0  0  0  0  0  0  0  0  0  0  0
   84.8721    7.3517   -0.7172 C   0  0  0  0  0  0  0  0  0  0  0  0
   85.5616    8.2494   -1.6773 C   0  0  0  0  0  0  0  0  0  0  0  0
   86.1246    7.6025   -2.7086 O   0  0  0  0  0  0  0  0  0  0  0  0
   85.6236    9.4468   -1.5639 O   0  0  0  0  0  0  0  0  0  0  0  0
   84.8331    5.9713   -0.9037 C   0  0  0  0  0  0  0  0  0  0  0  0
   85.3430    3.0011   -0.1915 C   0  0  0  0  0  0  0  0  0  0  0  0
   86.6329    3.5961    0.0323 C   0  0  0  0  0  0  0  0  0  0  0  0
   87.5521    2.6049   -0.0718 C   0  0  0  0  0  0  0  0  0  0  0  0
   86.8323    1.3946   -0.3485 C   0  0  0  0  0  0  0  0  0  0  0  0
   85.4944    1.6622   -0.4103 N   0  0  0  0  0  0  0  0  0  0  0  0
   88.5029    0.1132   -0.5044 H   0  0  0  0  0  0  0  0  0  0  0  0
   88.4729   -2.4427   -1.0619 H   0  0  0  0  0  0  0  0  0  0  0  0
   86.5366   -4.2700   -1.4179 H   0  0  0  0  0  0  0  0  0  0  0  0
   84.9048   -5.1189    0.4583 H   0  0  0  0  0  0  0  0  0  0  0  0
   85.3405   -9.5710    0.7323 H   0  0  0  0  0  0  0  0  0  0  0  0
   83.7255   -8.4283   -1.9932 H   0  0  0  0  0  0  0  0  0  0  0  0
   82.7079   -6.8593   -3.6169 H   0  0  0  0  0  0  0  0  0  0  0  0
   82.8006   -4.4276   -3.2146 H   0  0  0  0  0  0  0  0  0  0  0  0
   81.2336   -4.1563   -1.0424 H   0  0  0  0  0  0  0  0  0  0  0  0
   79.4080   -2.2056   -0.8161 H   0  0  0  0  0  0  0  0  0  0  0  0
   79.5897    3.0757   -0.6944 H   0  0  0  0  0  0  0  0  0  0  0  0
   81.5356    4.8941   -0.3797 H   0  0  0  0  0  0  0  0  0  0  0  0
   83.0491    5.1138    1.8443 H   0  0  0  0  0  0  0  0  0  0  0  0
   83.1158    7.5596    2.1754 H   0  0  0  0  0  0  0  0  0  0  0  0
   84.2940    9.0008    0.5248 H   0  0  0  0  0  0  0  0  0  0  0  0
   86.5504    8.2565   -3.2864 H   0  0  0  0  0  0  0  0  0  0  0  0
   85.3042    5.5294   -1.7737 H   0  0  0  0  0  0  0  0  0  0  0  0
   86.8046    4.6376    0.2518 H   0  0  0  0  0  0  0  0  0  0  0  0
   88.6233    2.6715    0.0357 H   0  0  0  0  0  0  0  0  0  0  0  0
   56.1350    0.3993   -0.9957 C   0  0  0  0  0  0  0  0  0  0  0  0
   57.3506    0.4400   -1.0366 C   0  0  0  0  0  0  0  0  0  0  0  0
   67.0432    0.6237   -1.1551 C   0  0  0  0  0  0  0  0  0  0  0  0
   68.2607    0.6344   -1.1542 C   0  0  0  0  0  0  0  0  0  0  0  0
   77.9591    0.4890   -0.8496 C   0  0  0  0  0  0  0  0  0  0  0  0
   79.1741    0.4473   -0.7917 C   0  0  0  0  0  0  0  0  0  0  0  0
   62.1962    0.5460   -1.1274 Cu  0  0  0  0  0  0  0  0  0  0  0  0
   58.7591    0.4786   -1.0746 C   0  0  0  0  0  0  0  0  0  0  0  0
   59.4258   -0.6242   -1.6379 C   0  0  0  0  0  0  0  0  0  0  0  0
   58.7743   -1.7263   -2.2782 C   0  0  0  0  0  0  0  0  0  0  0  0
   59.7434   -2.6050   -2.6403 C   0  0  0  0  0  0  0  0  0  0  0  0
   60.9952   -2.0464   -2.2162 C   0  0  0  0  0  0  0  0  0  0  0  0
   60.7716   -0.8290   -1.6305 N   0  0  0  0  0  0  0  0  0  0  0  0
   62.2404   -2.6630   -2.3594 C   0  0  0  0  0  0  0  0  0  0  0  0
   62.2597   -4.0459   -2.8938 C   0  0  0  0  0  0  0  0  0  0  0  0
   61.5564   -5.0629   -2.2536 C   0  0  0  0  0  0  0  0  0  0  0  0
   61.5742   -6.3624   -2.7582 C   0  0  0  0  0  0  0  0  0  0  0  0
   60.8004   -7.4008   -2.0325 C   0  0  0  0  0  0  0  0  0  0  0  0
   60.8930   -8.6204   -2.5822 O   0  0  0  0  0  0  0  0  0  0  0  0
   60.1417   -7.1928   -1.0457 O   0  0  0  0  0  0  0  0  0  0  0  0
   62.2993   -6.6541   -3.9136 C   0  0  0  0  0  0  0  0  0  0  0  0
   62.9994   -5.6437   -4.5540 C   0  0  0  0  0  0  0  0  0  0  0  0
   62.9821   -4.3508   -4.0506 C   0  0  0  0  0  0  0  0  0  0  0  0
   63.4686   -2.0815   -2.0354 C   0  0  0  0  0  0  0  0  0  0  0  0
   64.7344   -2.7559   -2.0671 C   0  0  0  0  0  0  0  0  0  0  0  0
   65.6787   -1.8430   -1.7233 C   0  0  0  0  0  0  0  0  0  0  0  0
   63.6592   -0.7803   -1.6535 N   0  0  0  0  0  0  0  0  0  0  0  0
   64.9983   -0.6078   -1.4791 C   0  0  0  0  0  0  0  0  0  0  0  0
   65.6348    0.6040   -1.1534 C   0  0  0  0  0  0  0  0  0  0  0  0
   64.9635    1.7956   -0.8230 C   0  0  0  0  0  0  0  0  0  0  0  0
   65.6073    3.0518   -0.5867 C   0  0  0  0  0  0  0  0  0  0  0  0
   64.6378    3.9363   -0.2387 C   0  0  0  0  0  0  0  0  0  0  0  0
   63.3934    3.2224   -0.2569 C   0  0  0  0  0  0  0  0  0  0  0  0
   63.6214    1.9268   -0.6380 N   0  0  0  0  0  0  0  0  0  0  0  0
   62.1515    3.7643    0.0819 C   0  0  0  0  0  0  0  0  0  0  0  0
   62.1326    5.1512    0.6071 C   0  0  0  0  0  0  0  0  0  0  0  0
   61.3915    6.1444   -0.0379 C   0  0  0  0  0  0  0  0  0  0  0  0
   61.3730    7.4432    0.4509 C   0  0  0  0  0  0  0  0  0  0  0  0
   62.0906    7.7670    1.5903 C   0  0  0  0  0  0  0  0  0  0  0  0
   62.8338    6.7835    2.2449 C   0  0  0  0  0  0  0  0  0  0  0  0
   63.5885    7.1696    3.4639 C   0  0  0  0  0  0  0  0  0  0  0  0
   64.2722    6.1567    4.0154 O   0  0  0  0  0  0  0  0  0  0  0  0
   63.6020    8.2798    3.9306 O   0  0  0  0  0  0  0  0  0  0  0  0
   62.8547    5.4803    1.7528 C   0  0  0  0  0  0  0  0  0  0  0  0
   60.9261    3.1026   -0.0288 C   0  0  0  0  0  0  0  0  0  0  0  0
   59.6665    3.6177    0.4259 C   0  0  0  0  0  0  0  0  0  0  0  0
   58.7222    2.6965    0.1049 C   0  0  0  0  0  0  0  0  0  0  0  0
   59.3971    1.6136   -0.5438 C   0  0  0  0  0  0  0  0  0  0  0  0
   60.7327    1.8726   -0.5979 N   0  0  0  0  0  0  0  0  0  0  0  0
   57.7121   -1.8032   -2.4437 H   0  0  0  0  0  0  0  0  0  0  0  0
   59.6249   -3.5396   -3.1641 H   0  0  0  0  0  0  0  0  0  0  0  0
   60.9999   -4.8586   -1.3453 H   0  0  0  0  0  0  0  0  0  0  0  0
   60.3610   -9.2369   -2.0531 H   0  0  0  0  0  0  0  0  0  0  0  0
   62.3111   -7.6641   -4.3049 H   0  0  0  0  0  0  0  0  0  0  0  0
   63.5619   -5.8623   -5.4547 H   0  0  0  0  0  0  0  0  0  0  0  0
   63.5196   -3.5625   -4.5657 H   0  0  0  0  0  0  0  0  0  0  0  0
   64.8780   -3.7989   -2.2987 H   0  0  0  0  0  0  0  0  0  0  0  0
   66.7414   -1.9922   -1.6256 H   0  0  0  0  0  0  0  0  0  0  0  0
   66.6647    3.2324   -0.6908 H   0  0  0  0  0  0  0  0  0  0  0  0
   64.7509    4.9834   -0.0090 H   0  0  0  0  0  0  0  0  0  0  0  0
   60.8399    5.8962   -0.9378 H   0  0  0  0  0  0  0  0  0  0  0  0
   60.7964    8.2039   -0.0629 H   0  0  0  0  0  0  0  0  0  0  0  0
   62.0865    8.7764    1.9858 H   0  0  0  0  0  0  0  0  0  0  0  0
   64.7328    6.4884    4.8033 H   0  0  0  0  0  0  0  0  0  0  0  0
   63.4206    4.7156    2.2715 H   0  0  0  0  0  0  0  0  0  0  0  0
   59.5275    4.5530    0.9435 H   0  0  0  0  0  0  0  0  0  0  0  0
   57.6630    2.7342    0.3010 H   0  0  0  0  0  0  0  0  0  0  0  0
   73.1110    0.5926   -1.0523 Cu  0  0  0  0  0  0  0  0  0  0  0  0
   69.6695    0.6350   -1.1421 C   0  0  0  0  0  0  0  0  0  0  0  0
   70.3245   -0.4471   -1.7587 C   0  0  0  0  0  0  0  0  0  0  0  0
   69.6594   -1.4942   -2.4741 C   0  0  0  0  0  0  0  0  0  0  0  0
   70.6171   -2.3589   -2.8947 C   0  0  0  0  0  0  0  0  0  0  0  0
   71.8759   -1.8450   -2.4356 C   0  0  0  0  0  0  0  0  0  0  0  0
   71.6662   -0.6724   -1.7602 N   0  0  0  0  0  0  0  0  0  0  0  0
   73.1150   -2.4468   -2.6619 C   0  0  0  0  0  0  0  0  0  0  0  0
   73.1149   -3.7634   -3.3483 C   0  0  0  0  0  0  0  0  0  0  0  0
   72.4827   -4.8592   -2.7675 C   0  0  0  0  0  0  0  0  0  0  0  0
   72.4904   -6.0998   -3.4038 C   0  0  0  0  0  0  0  0  0  0  0  0
   71.8072   -7.2318   -2.7291 C   0  0  0  0  0  0  0  0  0  0  0  0
   71.8949   -8.3891   -3.4014 O   0  0  0  0  0  0  0  0  0  0  0  0
   71.2244   -7.1460   -1.6786 O   0  0  0  0  0  0  0  0  0  0  0  0
   73.1284   -6.2499   -4.6351 C   0  0  0  0  0  0  0  0  0  0  0  0
   73.7535   -5.1589   -5.2183 C   0  0  0  0  0  0  0  0  0  0  0  0
   73.7506   -3.9259   -4.5813 C   0  0  0  0  0  0  0  0  0  0  0  0
   74.3534   -1.9190   -2.2906 C   0  0  0  0  0  0  0  0  0  0  0  0
   75.6159   -2.5738   -2.4806 C   0  0  0  0  0  0  0  0  0  0  0  0
   76.5713   -1.7405   -1.9963 C   0  0  0  0  0  0  0  0  0  0  0  0
   74.5589   -0.7089   -1.6838 N   0  0  0  0  0  0  0  0  0  0  0  0
   75.9006   -0.5790   -1.4949 C   0  0  0  0  0  0  0  0  0  0  0  0
   76.5508    0.5259   -0.9163 C   0  0  0  0  0  0  0  0  0  0  0  0
   75.9024    1.6635   -0.4033 C   0  0  0  0  0  0  0  0  0  0  0  0
   76.5770    2.8063    0.1345 C   0  0  0  0  0  0  0  0  0  0  0  0
   75.6203    3.6866    0.5238 C   0  0  0  0  0  0  0  0  0  0  0  0
   74.3514    3.0777    0.2429 C   0  0  0  0  0  0  0  0  0  0  0  0
   74.5562    1.8504   -0.3285 N   0  0  0  0  0  0  0  0  0  0  0  0
   73.1088    3.6543    0.5138 C   0  0  0  0  0  0  0  0  0  0  0  0
   73.1040    4.9850    1.1729 C   0  0  0  0  0  0  0  0  0  0  0  0
   72.5433    6.0880    0.5248 C   0  0  0  0  0  0  0  0  0  0  0  0
   72.5429    7.3381    1.1278 C   0  0  0  0  0  0  0  0  0  0  0  0
   73.0980    7.5020    2.3859 C   0  0  0  0  0  0  0  0  0  0  0  0
   73.6569    6.4065    3.0459 C   0  0  0  0  0  0  0  0  0  0  0  0
   74.2392    6.6229    4.3941 C   0  0  0  0  0  0  0  0  0  0  0  0
   74.7491    5.5109    4.9436 O   0  0  0  0  0  0  0  0  0  0  0  0
   74.2651    7.6857    4.9602 O   0  0  0  0  0  0  0  0  0  0  0  0
   73.6601    5.1520    2.4391 C   0  0  0  0  0  0  0  0  0  0  0  0
   71.8681    3.0844    0.2202 C   0  0  0  0  0  0  0  0  0  0  0  0
   70.6007    3.6376    0.6040 C   0  0  0  0  0  0  0  0  0  0  0  0
   69.6442    2.7868    0.1530 C   0  0  0  0  0  0  0  0  0  0  0  0
   70.3180    1.7118   -0.5106 C   0  0  0  0  0  0  0  0  0  0  0  0
   71.6637    1.9074   -0.4482 N   0  0  0  0  0  0  0  0  0  0  0  0
   68.5966   -1.5455   -2.6445 H   0  0  0  0  0  0  0  0  0  0  0  0
   70.4878   -3.2564   -3.4775 H   0  0  0  0  0  0  0  0  0  0  0  0
   71.9915   -4.7636   -1.8053 H   0  0  0  0  0  0  0  0  0  0  0  0
   71.4298   -9.0744   -2.8945 H   0  0  0  0  0  0  0  0  0  0  0  0
   73.1317   -7.2139   -5.1291 H   0  0  0  0  0  0  0  0  0  0  0  0
   74.2477   -5.2674   -6.1772 H   0  0  0  0  0  0  0  0  0  0  0  0
   74.2332   -3.0744   -5.0480 H   0  0  0  0  0  0  0  0  0  0  0  0
   75.7513   -3.5504   -2.9166 H   0  0  0  0  0  0  0  0  0  0  0  0
   77.6377   -1.8942   -1.9776 H   0  0  0  0  0  0  0  0  0  0  0  0
   77.6469    2.9179    0.1996 H   0  0  0  0  0  0  0  0  0  0  0  0
   75.7603    4.6647    0.9544 H   0  0  0  0  0  0  0  0  0  0  0  0
   72.1187    5.9632   -0.4651 H   0  0  0  0  0  0  0  0  0  0  0  0
   72.1089    8.1859    0.6102 H   0  0  0  0  0  0  0  0  0  0  0  0
   73.1067    8.4714    2.8713 H   0  0  0  0  0  0  0  0  0  0  0  0
   75.1052    5.7341    5.8188 H   0  0  0  0  0  0  0  0  0  0  0  0
   74.0831    4.3008    2.9593 H   0  0  0  0  0  0  0  0  0  0  0  0
   70.4641    4.5480    1.1648 H   0  0  0  0  0  0  0  0  0  0  0  0
   68.5757    2.8683    0.2671 H   0  0  0  0  0  0  0  0  0  0  0  0
  2  3  4  0  0  0  0
  3  4  1  0  0  0  0
  4  5  2  0  0  0  0
  5  6  4  0  0  0  0
  1  7  1  0  0  0  0
  3  7  4  0  0  0  0
  6  7  4  0  0  0  0
  6  8  4  0  0  0  0
  8  9  1  0  0  0  0
  9 10  4  0  0  0  0
 10 11  4  0  0  0  0
 11 12  1  0  0  0  0
 12 13  4  0  0  0  0
 12 14  2  0  0  0  0
 11 15  4  0  0  0  0
 15 16  4  0  0  0  0
  9 17  4  0  0  0  0
 16 17  4  0  0  0  0
  8 18  4  0  0  0  0
 18 19  4  0  0  0  0
 19 20  2  0  0  0  0
  1 21  1  0  0  0  0
 18 21  4  0  0  0  0
 20 22  4  0  0  0  0
 21 22  4  0  0  0  0
 22 23  4  0  0  0  0
 23 24  4  0  0  0  0
 24 25  4  0  0  0  0
 25 26  2  0  0  0  0
 26 27  4  0  0  0  0
  1 28  1  0  0  0  0
 24 28  4  0  0  0  0
 27 28  4  0  0  0  0
 27 29  4  0  0  0  0
 29 30  1  0  0  0  0
 30 31  4  0  0  0  0
 31 32  4  0  0  0  0
 32 33  4  0  0  0  0
 33 34  4  0  0  0  0
 34 35  1  0  0  0  0
 35 36  4  0  0  0  0
 35 37  2  0  0  0  0
 30 38  4  0  0  0  0
 34 38  4  0  0  0  0
 29 39  4  0  0  0  0
 39 40  4  0  0  0  0
 40 41  2  0  0  0  0
  2 42  4  0  0  0  0
 41 42  1  0  0  0  0
  1 43  1  0  0  0  0
 39 43  4  0  0  0  0
 42 43  4  0  0  0  0
  2 44  1  0  0  0  0
  4 45  1  0  0  0  0
  5 46  1  0  0  0  0
 10 47  1  0  0  0  0
 13 48  1  0  0  0  0
 15 49  1  0  0  0  0
 16 50  1  0  0  0  0
 17 51  1  0  0  0  0
 19 52  1  0  0  0  0
 20 53  1  0  0  0  0
 25 54  1  0  0  0  0
 26 55  1  0  0  0  0
 31 56  1  0  0  0  0
 32 57  1  0  0  0  0
 33 58  1  0  0  0  0
 36 59  1  0  0  0  0
 38 60  1  0  0  0  0
 40 61  1  0  0  0  0
 41 62  1  0  0  0  0
 64 65  4  0  0  0  0
 65 66  1  0  0  0  0
 66 67  2  0  0  0  0
 67 68  4  0  0  0  0
 63 69  1  0  0  0  0
 65 69  4  0  0  0  0
 68 69  4  0  0  0  0
 68 70  4  0  0  0  0
 70 71  1  0  0  0  0
 71 72  4  0  0  0  0
 72 73  4  0  0  0  0
 73 74  1  0  0  0  0
 74 75  4  0  0  0  0
 74 76  2  0  0  0  0
 73 77  4  0  0  0  0
 77 78  4  0  0  0  0
 71 79  4  0  0  0  0
 78 79  4  0  0  0  0
 70 80  4  0  0  0  0
 80 81  4  0  0  0  0
 81 82  2  0  0  0  0
 63 83  1  0  0  0  0
 80 83  4  0  0  0  0
 82 84  4  0  0  0  0
 83 84  4  0  0  0  0
 84 85  4  0  0  0  0
 85 86  4  0  0  0  0
 86 87  4  0  0  0  0
 87 88  2  0  0  0  0
 88 89  4  0  0  0  0
 63 90  1  0  0  0  0
 86 90  4  0  0  0  0
 89 90  4  0  0  0  0
 89 91  4  0  0  0  0
 91 92  1  0  0  0  0
 92 93  4  0  0  0  0
 93 94  4  0  0  0  0
 94 95  4  0  0  0  0
 95 96  4  0  0  0  0
 96 97  1  0  0  0  0
 97 98  4  0  0  0  0
 97 99  2  0  0  0  0
 92100  4  0  0  0  0
 96100  4  0  0  0  0
 91101  4  0  0  0  0
101102  4  0  0  0  0
102103  2  0  0  0  0
 64104  4  0  0  0  0
103104  1  0  0  0  0
 63105  1  0  0  0  0
101105  4  0  0  0  0
104105  4  0  0  0  0
 64106  1  0  0  0  0
 66107  1  0  0  0  0
 67108  1  0  0  0  0
 72109  1  0  0  0  0
 75110  1  0  0  0  0
 77111  1  0  0  0  0
 78112  1  0  0  0  0
 79113  1  0  0  0  0
 81114  1  0  0  0  0
 82115  1  0  0  0  0
 87116  1  0  0  0  0
 88117  1  0  0  0  0
 93118  1  0  0  0  0
 94119  1  0  0  0  0
 95120  1  0  0  0  0
 98121  1  0  0  0  0
100122  1  0  0  0  0
102123  1  0  0  0  0
103124  1  0  0  0  0
 23125  4  0  0  0  0
125126  3  0  0  0  0
127128  3  0  0  0  0
 85130  4  0  0  0  0
129130  3  0  0  0  0
126132  4  0  0  0  0
132133  4  0  0  0  0
133134  4  0  0  0  0
134135  2  0  0  0  0
135136  4  0  0  0  0
131137  1  0  0  0  0
133137  4  0  0  0  0
136137  4  0  0  0  0
136138  4  0  0  0  0
138139  1  0  0  0  0
139140  4  0  0  0  0
140141  4  0  0  0  0
141142  1  0  0  0  0
142143  4  0  0  0  0
142144  2  0  0  0  0
141145  4  0  0  0  0
145146  4  0  0  0  0
139147  4  0  0  0  0
146147  4  0  0  0  0
138148  4  0  0  0  0
148149  4  0  0  0  0
149150  2  0  0  0  0
131151  1  0  0  0  0
148151  4  0  0  0  0
150152  4  0  0  0  0
151152  4  0  0  0  0
127153  4  0  0  0  0
152153  4  0  0  0  0
153154  4  0  0  0  0
154155  4  0  0  0  0
155156  2  0  0  0  0
156157  4  0  0  0  0
131158  1  0  0  0  0
154158  4  0  0  0  0
157158  4  0  0  0  0
157159  4  0  0  0  0
159160  1  0  0  0  0
160161  4  0  0  0  0
161162  4  0  0  0  0
162163  4  0  0  0  0
163164  4  0  0  0  0
164165  1  0  0  0  0
165166  4  0  0  0  0
165167  2  0  0  0  0
160168  4  0  0  0  0
164168  4  0  0  0  0
159169  4  0  0  0  0
169170  4  0  0  0  0
170171  2  0  0  0  0
132172  4  0  0  0  0
171172  4  0  0  0  0
131173  1  0  0  0  0
169173  4  0  0  0  0
172173  4  0  0  0  0
134174  1  0  0  0  0
135175  1  0  0  0  0
140176  1  0  0  0  0
143177  1  0  0  0  0
145178  1  0  0  0  0
146179  1  0  0  0  0
147180  1  0  0  0  0
149181  1  0  0  0  0
150182  1  0  0  0  0
155183  1  0  0  0  0
156184  1  0  0  0  0
161185  1  0  0  0  0
162186  1  0  0  0  0
163187  1  0  0  0  0
166188  1  0  0  0  0
168189  1  0  0  0  0
170190  1  0  0  0  0
171191  1  0  0  0  0
128193  4  0  0  0  0
193194  4  0  0  0  0
194195  4  0  0  0  0
195196  2  0  0  0  0
196197  4  0  0  0  0
192198  1  0  0  0  0
194198  4  0  0  0  0
197198  4  0  0  0  0
197199  4  0  0  0  0
199200  1  0  0  0  0
200201  4  0  0  0  0
201202  4  0  0  0  0
202203  1  0  0  0  0
203204  4  0  0  0  0
203205  2  0  0  0  0
202206  4  0  0  0  0
206207  4  0  0  0  0
200208  4  0  0  0  0
207208  4  0  0  0  0
199209  4  0  0  0  0
209210  4  0  0  0  0
210211  2  0  0  0  0
192212  1  0  0  0  0
209212  4  0  0  0  0
211213  4  0  0  0  0
212213  4  0  0  0  0
129214  4  0  0  0  0
213214  4  0  0  0  0
214215  4  0  0  0  0
215216  4  0  0  0  0
216217  2  0  0  0  0
217218  4  0  0  0  0
192219  1  0  0  0  0
215219  4  0  0  0  0
218219  4  0  0  0  0
218220  4  0  0  0  0
220221  1  0  0  0  0
221222  4  0  0  0  0
222223  4  0  0  0  0
223224  4  0  0  0  0
224225  4  0  0  0  0
225226  1  0  0  0  0
226227  4  0  0  0  0
226228  2  0  0  0  0
221229  4  0  0  0  0
225229  4  0  0  0  0
220230  4  0  0  0  0
230231  4  0  0  0  0
231232  2  0  0  0  0
193233  4  0  0  0  0
232233  4  0  0  0  0
192234  1  0  0  0  0
230234  4  0  0  0  0
233234  4  0  0  0  0
195235  1  0  0  0  0
196236  1  0  0  0  0
201237  1  0  0  0  0
204238  1  0  0  0  0
206239  1  0  0  0  0
207240  1  0  0  0  0
208241  1  0  0  0  0
210242  1  0  0  0  0
211243  1  0  0  0  0
216244  1  0  0  0  0
217245  1  0  0  0  0
222246  1  0  0  0  0
223247  1  0  0  0  0
224248  1  0  0  0  0
227249  1  0  0  0  0
229250  1  0  0  0  0
231251  1  0  0  0  0
232252  1  0  0  0  0
M  END
