590

C 115.301716 -0.045625 -0.177178
C 116.034031 -1.410720 0.000651
C 115.433949 -2.648838 0.024420
C 116.457337 -3.601687 0.266867
C 117.647000 -2.910599 0.391600
N 117.383993 -1.581734 0.172397
C 119.064134 -3.522021 0.749156
C 119.096935 -4.908828 1.264992
C 119.398324 -5.973277 0.404341
C 119.423284 -7.283422 0.885178
C 119.141935 -7.522866 2.237393
N 119.165627 -8.897665 2.748769
O 119.435077 -9.811222 1.953142
O 118.912905 -9.077780 3.950322
C 118.837550 -6.466716 3.107243
C 118.816067 -5.160861 2.614468
C 120.194996 -2.776018 0.631530
C 121.494435 -3.288288 1.016591
C 122.397323 -2.335711 0.815240
N 120.394850 -1.494527 0.192553
C 121.723553 -1.169411 0.280040
C 122.391944 -0.027600 -0.033124
C 121.616314 1.215456 -0.640349
C 122.156400 2.204054 -1.439126
C 121.130463 3.144560 -1.707018
C 119.991262 2.698619 -1.071513
N 120.282264 1.495806 -0.472993
C 118.583146 3.425174 -1.050582
C 118.557420 4.888221 -1.259174
C 118.195891 5.419182 -2.505153
C 118.180646 6.800353 -2.706313
C 118.533654 7.650688 -1.649445
N 118.519442 9.103265 -1.854043
O 118.204896 9.531015 -2.975863
O 118.823506 9.830706 -0.895686
C 118.900337 7.131773 -0.400164
C 118.911213 5.748550 -0.211648
C 117.454651 2.706077 -0.820061
C 116.132267 3.305171 -0.774850
C 115.245051 2.341711 -0.544977
C 115.966406 1.098982 -0.422236
N 117.288452 1.370036 -0.587245
H 114.223038 -0.030697 -0.076497
H 114.379780 -2.842472 -0.101674
H 116.333030 -4.669347 0.364518
H 118.080008 -0.840691 0.143491
H 119.617392 -5.761145 -0.641023
H 119.662984 -8.089996 0.198008
H 118.618083 -6.634308 4.157967
H 118.584564 -4.323750 3.271328
H 121.705358 -4.265805 1.411147
H 123.447898 -2.436111 1.018431
H 123.178479 2.252398 -1.783138
H 121.216201 4.046707 -2.293321
H 119.599569 0.886416 -0.030110
H 117.922639 4.738024 -3.309711
H 117.892861 7.185610 -3.680434
H 119.177162 7.776134 0.429578
H 119.191782 5.322906 0.750584
H 115.901343 4.346981 -0.902784
H 114.180548 2.461590 -0.455101
C 253.240449 -0.086073 -0.166005
C 252.508134 1.176740 -0.714102
C 253.108216 2.251501 -1.329236
C 252.084828 3.193691 -1.610268
C 250.895165 2.664622 -1.148482
N 251.158172 1.411663 -0.654491
C 249.478031 3.372883 -1.155472
C 249.445229 4.827830 -1.424634
C 249.143840 5.299570 -2.709638
C 249.118880 6.670761 -2.969485
C 249.400229 7.570352 -1.931914
N 249.376538 9.012705 -2.198739
O 249.107088 9.388326 -3.350485
O 249.629260 9.784044 -1.260014
C 249.704615 7.110456 -0.643276
C 249.726098 5.736820 -0.395875
C 248.347169 2.672280 -0.873492
C 247.047729 3.309568 -0.805981
C 246.144841 2.388705 -0.489819
N 248.147315 1.347168 -0.592429
C 246.818612 1.113059 -0.350463
C 246.150220 -0.027600 -0.033124
C 246.925850 -1.406089 0.083819
C 246.385765 -2.664526 -0.094244
C 247.411702 -3.609184 0.158617
C 248.550903 -2.900267 0.475107
N 248.259900 -1.560783 0.371350
C 249.959019 -3.513058 0.866015
C 249.984745 -4.875724 1.437990
C 250.346274 -5.970966 0.641228
C 250.361519 -7.259551 1.177554
C 250.008510 -7.446818 2.521047
N 250.022723 -8.798449 3.091075
O 250.337269 -9.741383 2.347888
O 249.718659 -8.930814 4.286941
C 249.641828 -6.360219 3.326825
C 249.630951 -5.076363 2.778594
C 251.087513 -2.777597 0.694733
C 252.409897 -3.268535 1.041051
C 253.297114 -2.323693 0.743780
C 252.575759 -1.194172 0.211218
N 251.253712 -1.511492 0.208740
H 254.319127 -0.047205 -0.071937
H 254.162385 2.352954 -1.536843
H 252.209135 4.160088 -2.074500
H 250.462157 0.760858 -0.298916
H 248.924773 4.580926 -3.497886
H 248.879181 7.010239 -3.973237
H 249.924082 7.793627 0.172436
H 249.957601 5.355576 0.597539
H 246.836806 4.351006 -0.969136
H 245.094266 2.579169 -0.366975
H 245.363685 -2.882599 -0.364662
H 247.325963 -4.684365 0.118525
H 248.942596 -0.810466 0.438631
H 250.619526 -5.799375 -0.398890
H 250.649304 -8.090203 0.539312
H 249.365003 -6.487303 4.369669
H 249.350383 -4.217154 3.385902
H 252.640822 -4.228291 1.466024
H 254.361617 -2.380440 0.882447
C 128.654958 -0.026497 -0.024635
C 127.446019 -0.039952 -0.033082
C 126.024490 -0.031133 -0.045065
C 124.812820 -0.023694 -0.034202
C 130.071562 -0.033172 -0.024101
C 131.292258 -0.023694 -0.034202
C 144.717806 -0.026497 -0.024635
C 143.508867 -0.039952 -0.033082
C 142.087338 -0.031133 -0.045065
C 140.875668 -0.023694 -0.034202
C 146.134410 -0.033172 -0.024101
C 147.355106 -0.023694 -0.034202
C 160.780654 -0.026497 -0.024635
C 159.571715 -0.039952 -0.033082
C 158.150186 -0.031133 -0.045065
C 156.938516 -0.023694 -0.034202
C 162.197258 -0.033172 -0.024101
C 163.417954 -0.023694 -0.034202
C 176.843502 -0.026497 -0.024635
C 175.634563 -0.039952 -0.033082
C 174.213034 -0.031133 -0.045065
C 173.001364 -0.023694 -0.034202
C 178.260107 -0.033172 -0.024101
C 179.480802 -0.023694 -0.034202
C 192.906350 -0.026497 -0.024635
C 191.697411 -0.039952 -0.033082
C 190.275882 -0.031133 -0.045065
C 189.064213 -0.023694 -0.034202
C 194.322955 -0.033172 -0.024101
C 195.543650 -0.023694 -0.034202
C 208.969198 -0.026497 -0.024635
C 207.760259 -0.039952 -0.033082
C 206.338730 -0.031133 -0.045065
C 205.127061 -0.023694 -0.034202
C 210.385803 -0.033172 -0.024101
C 211.606499 -0.023694 -0.034202
C 225.032047 -0.026497 -0.024635
C 223.823107 -0.039952 -0.033082
C 222.401578 -0.031133 -0.045065
C 221.189909 -0.023694 -0.034202
C 226.448651 -0.033172 -0.024101
C 227.669347 -0.023694 -0.034202
C 241.094895 -0.026497 -0.024635
C 239.885955 -0.039952 -0.033082
C 238.464426 -0.031133 -0.045065
C 237.252757 -0.023694 -0.034202
C 242.511499 -0.033172 -0.024101
C 243.732195 -0.023694 -0.034202
C 132.502879 0.010725 0.013531
C 133.298582 1.246413 -0.576906
C 132.798814 2.509012 -0.822317
C 133.837783 3.265788 -1.422524
C 134.940214 2.442738 -1.519396
N 134.624887 1.243373 -0.932111
C 136.326511 2.802203 -2.191497
C 136.313975 3.790922 -3.291820
C 136.751537 5.104011 -3.068493
C 136.729198 6.041289 -4.102665
C 136.261046 5.656352 -5.366508
N 136.234551 6.636649 -6.457575
O 135.829697 6.261953 -7.569188
O 136.617551 7.791566 -6.212959
C 135.817121 4.347900 -5.601314
C 135.844929 3.419692 -4.558823
C 137.463341 2.175589 -1.791271
C 138.748639 2.426798 -2.410494
C 139.658011 1.665985 -1.810846
N 137.673550 1.236058 -0.821409
C 138.997768 0.890904 -0.780163
C 139.662185 0.010725 0.013531
C 138.866430 -0.806937 1.112080
C 139.365932 -1.290628 2.304012
C 138.326983 -2.025679 2.930690
C 137.224826 -1.962646 2.103990
N 137.540295 -1.155404 1.040213
C 135.838615 -2.691597 2.326880
C 135.851195 -3.962074 3.084568
C 136.319187 -5.133801 2.475357
C 136.346983 -6.335880 3.184830
C 135.904151 -6.357854 4.514368
N 135.930684 -7.617636 5.265598
O 135.549323 -7.600245 6.446539
O 136.333936 -8.636333 4.682833
C 135.437058 -5.191870 5.136413
C 135.414655 -3.996218 4.416406
C 134.701773 -2.177969 1.789316
C 133.416473 -2.833993 1.916398
C 132.507083 -2.098787 1.285636
C 133.167323 -0.937925 0.723959
N 134.491554 -1.045040 1.054595
H 131.793953 2.843758 -0.613449
H 133.780564 4.288551 -1.762866
H 135.281557 0.490598 -0.747358
H 137.113238 5.378876 -2.078774
H 137.077715 7.050830 -3.903660
H 135.450157 4.032822 -6.574167
H 135.504407 2.397789 -4.718797
H 138.944952 3.103227 -3.222619
H 140.702242 1.640485 -2.064191
H 140.370597 -1.149690 2.673088
H 138.384027 -2.556475 3.868857
H 136.883735 -0.829333 0.336921
H 136.658865 -5.093662 1.441510
H 136.713106 -7.229791 2.687579
H 135.089414 -5.191332 6.165673
H 135.053725 -3.078010 4.877443
H 133.220159 -3.761333 2.423480
H 131.462837 -2.342411 1.211820
C 148.565727 0.010725 0.013531
C 149.361430 1.246413 -0.576906
C 148.861662 2.509012 -0.822317
C 149.900631 3.265788 -1.422524
C 151.003063 2.442738 -1.519396
N 150.687735 1.243373 -0.932111
C 152.389359 2.802203 -2.191497
C 152.376823 3.790922 -3.291820
C 152.814385 5.104011 -3.068493
C 152.792046 6.041289 -4.102665
C 152.323894 5.656352 -5.366508
N 152.297399 6.636649 -6.457575
O 151.892545 6.261953 -7.569188
O 152.680399 7.791566 -6.212959
C 151.879969 4.347900 -5.601314
C 151.907778 3.419692 -4.558823
C 153.526189 2.175589 -1.791271
C 154.811487 2.426798 -2.410494
C 155.720859 1.665985 -1.810846
N 153.736398 1.236058 -0.821409
C 155.060616 0.890904 -0.780163
C 155.725033 0.010725 0.013531
C 154.929278 -0.806937 1.112080
C 155.428780 -1.290628 2.304012
C 154.389831 -2.025679 2.930690
C 153.287674 -1.962646 2.103990
N 153.603144 -1.155404 1.040213
C 151.901463 -2.691597 2.326880
C 151.914043 -3.962074 3.084568
C 152.382035 -5.133801 2.475357
C 152.409831 -6.335880 3.184830
C 151.966999 -6.357854 4.514368
N 151.993532 -7.617636 5.265598
O 151.612171 -7.600245 6.446539
O 152.396785 -8.636333 4.682833
C 151.499906 -5.191870 5.136413
C 151.477504 -3.996218 4.416406
C 150.764621 -2.177969 1.789316
C 149.479321 -2.833993 1.916398
C 148.569931 -2.098787 1.285636
C 149.230171 -0.937925 0.723959
N 150.554402 -1.045040 1.054595
H 147.856801 2.843758 -0.613449
H 149.843412 4.288551 -1.762866
H 151.344405 0.490598 -0.747358
H 153.176086 5.378876 -2.078774
H 153.140563 7.050830 -3.903660
H 151.513005 4.032822 -6.574167
H 151.567255 2.397789 -4.718797
H 155.007801 3.103227 -3.222619
H 156.765090 1.640485 -2.064191
H 156.433446 -1.149690 2.673088
H 154.446875 -2.556475 3.868857
H 152.946583 -0.829333 0.336921
H 152.721713 -5.093662 1.441510
H 152.775954 -7.229791 2.687579
H 151.152262 -5.191332 6.165673
H 151.116573 -3.078010 4.877443
H 149.283007 -3.761333 2.423480
H 147.525685 -2.342411 1.211820
C 164.628575 0.010725 0.013531
C 165.424278 1.246413 -0.576906
C 164.924510 2.509012 -0.822317
C 165.963480 3.265788 -1.422524
C 167.065911 2.442738 -1.519396
N 166.750584 1.243373 -0.932111
C 168.452207 2.802203 -2.191497
C 168.439672 3.790922 -3.291820
C 168.877233 5.104011 -3.068493
C 168.854894 6.041289 -4.102665
C 168.386742 5.656352 -5.366508
N 168.360248 6.636649 -6.457575
O 167.955393 6.261953 -7.569188
O 168.743247 7.791566 -6.212959
C 167.942817 4.347900 -5.601314
C 167.970626 3.419692 -4.558823
C 169.589037 2.175589 -1.791271
C 170.874335 2.426798 -2.410494
C 171.783707 1.665985 -1.810846
N 169.799246 1.236058 -0.821409
C 171.123464 0.890904 -0.780163
C 171.787881 0.010725 0.013531
C 170.992127 -0.806937 1.112080
C 171.491628 -1.290628 2.304012
C 170.452679 -2.025679 2.930690
C 169.350522 -1.962646 2.103990
N 169.665992 -1.155404 1.040213
C 167.964311 -2.691597 2.326880
C 167.976891 -3.962074 3.084568
C 168.444883 -5.133801 2.475357
C 168.472679 -6.335880 3.184830
C 168.029847 -6.357854 4.514368
N 168.056380 -7.617636 5.265598
O 167.675019 -7.600245 6.446539
O 168.459633 -8.636333 4.682833
C 167.562754 -5.191870 5.136413
C 167.540352 -3.996218 4.416406
C 166.827469 -2.177969 1.789316
C 165.542169 -2.833993 1.916398
C 164.632779 -2.098787 1.285636
C 165.293019 -0.937925 0.723959
N 166.617251 -1.045040 1.054595
H 163.919649 2.843758 -0.613449
H 165.906261 4.288551 -1.762866
H 167.407253 0.490598 -0.747358
H 169.238934 5.378876 -2.078774
H 169.203411 7.050830 -3.903660
H 167.575853 4.032822 -6.574167
H 167.630104 2.397789 -4.718797
H 171.070649 3.103227 -3.222619
H 172.827938 1.640485 -2.064191
H 172.496294 -1.149690 2.673088
H 170.509723 -2.556475 3.868857
H 169.009432 -0.829333 0.336921
H 168.784561 -5.093662 1.441510
H 168.838803 -7.229791 2.687579
H 167.215110 -5.191332 6.165673
H 167.179421 -3.078010 4.877443
H 165.345855 -3.761333 2.423480
H 163.588533 -2.342411 1.211820
C 180.691423 0.010725 0.013531
C 181.487126 1.246413 -0.576906
C 180.987358 2.509012 -0.822317
C 182.026328 3.265788 -1.422524
C 183.128759 2.442738 -1.519396
N 182.813432 1.243373 -0.932111
C 184.515055 2.802203 -2.191497
C 184.502520 3.790922 -3.291820
C 184.940081 5.104011 -3.068493
C 184.917742 6.041289 -4.102665
C 184.449590 5.656352 -5.366508
N 184.423096 6.636649 -6.457575
O 184.018242 6.261953 -7.569188
O 184.806095 7.791566 -6.212959
C 184.005665 4.347900 -5.601314
C 184.033474 3.419692 -4.558823
C 185.651885 2.175589 -1.791271
C 186.937183 2.426798 -2.410494
C 187.846555 1.665985 -1.810846
N 185.862094 1.236058 -0.821409
C 187.186312 0.890904 -0.780163
C 187.850730 0.010725 0.013531
C 187.054975 -0.806937 1.112080
C 187.554476 -1.290628 2.304012
C 186.515527 -2.025679 2.930690
C 185.413370 -1.962646 2.103990
N 185.728840 -1.155404 1.040213
C 184.027159 -2.691597 2.326880
C 184.039739 -3.962074 3.084568
C 184.507731 -5.133801 2.475357
C 184.535527 -6.335880 3.184830
C 184.092695 -6.357854 4.514368
N 184.119228 -7.617636 5.265598
O 183.737867 -7.600245 6.446539
O 184.522481 -8.636333 4.682833
C 183.625602 -5.191870 5.136413
C 183.603200 -3.996218 4.416406
C 182.890317 -2.177969 1.789316
C 181.605017 -2.833993 1.916398
C 180.695627 -2.098787 1.285636
C 181.355867 -0.937925 0.723959
N 182.680099 -1.045040 1.054595
H 179.982497 2.843758 -0.613449
H 181.969109 4.288551 -1.762866
H 183.470101 0.490598 -0.747358
H 185.301782 5.378876 -2.078774
H 185.266260 7.050830 -3.903660
H 183.638701 4.032822 -6.574167
H 183.692952 2.397789 -4.718797
H 187.133497 3.103227 -3.222619
H 188.890786 1.640485 -2.064191
H 188.559142 -1.149690 2.673088
H 186.572571 -2.556475 3.868857
H 185.072280 -0.829333 0.336921
H 184.847409 -5.093662 1.441510
H 184.901651 -7.229791 2.687579
H 183.277958 -5.191332 6.165673
H 183.242269 -3.078010 4.877443
H 181.408703 -3.761333 2.423480
H 179.651381 -2.342411 1.211820
C 196.754271 0.010725 0.013531
C 197.549974 1.246413 -0.576906
C 197.050206 2.509012 -0.822317
C 198.089176 3.265788 -1.422524
C 199.191607 2.442738 -1.519396
N 198.876280 1.243373 -0.932111
C 200.577903 2.802203 -2.191497
C 200.565368 3.790922 -3.291820
C 201.002929 5.104011 -3.068493
C 200.980591 6.041289 -4.102665
C 200.512438 5.656352 -5.366508
N 200.485944 6.636649 -6.457575
O 200.081090 6.261953 -7.569188
O 200.868943 7.791566 -6.212959
C 200.068513 4.347900 -5.601314
C 200.096322 3.419692 -4.558823
C 201.714733 2.175589 -1.791271
C 203.000031 2.426798 -2.410494
C 203.909403 1.665985 -1.810846
N 201.924942 1.236058 -0.821409
C 203.249160 0.890904 -0.780163
C 203.913578 0.010725 0.013531
C 203.117823 -0.806937 1.112080
C 203.617324 -1.290628 2.304012
C 202.578375 -2.025679 2.930690
C 201.476218 -1.962646 2.103990
N 201.791688 -1.155404 1.040213
C 200.090007 -2.691597 2.326880
C 200.102588 -3.962074 3.084568
C 200.570579 -5.133801 2.475357
C 200.598375 -6.335880 3.184830
C 200.155543 -6.357854 4.514368
N 200.182076 -7.617636 5.265598
O 199.800715 -7.600245 6.446539
O 200.585329 -8.636333 4.682833
C 199.688451 -5.191870 5.136413
C 199.666048 -3.996218 4.416406
C 198.953165 -2.177969 1.789316
C 197.667865 -2.833993 1.916398
C 196.758475 -2.098787 1.285636
C 197.418716 -0.937925 0.723959
N 198.742947 -1.045040 1.054595
H 196.045345 2.843758 -0.613449
H 198.031957 4.288551 -1.762866
H 199.532949 0.490598 -0.747358
H 201.364630 5.378876 -2.078774
H 201.329108 7.050830 -3.903660
H 199.701549 4.032822 -6.574167
H 199.755800 2.397789 -4.718797
H 203.196345 3.103227 -3.222619
H 204.953634 1.640485 -2.064191
H 204.621990 -1.149690 2.673088
H 202.635420 -2.556475 3.868857
H 201.135128 -0.829333 0.336921
H 200.910258 -5.093662 1.441510
H 200.964499 -7.229791 2.687579
H 199.340806 -5.191332 6.165673
H 199.305117 -3.078010 4.877443
H 197.471551 -3.761333 2.423480
H 195.714229 -2.342411 1.211820
C 212.817119 0.010725 0.013531
C 213.612822 1.246413 -0.576906
C 213.113055 2.509012 -0.822317
C 214.152024 3.265788 -1.422524
C 215.254455 2.442738 -1.519396
N 214.939128 1.243373 -0.932111
C 216.640751 2.802203 -2.191497
C 216.628216 3.790922 -3.291820
C 217.065777 5.104011 -3.068493
C 217.043439 6.041289 -4.102665
C 216.575286 5.656352 -5.366508
N 216.548792 6.636649 -6.457575
O 216.143938 6.261953 -7.569188
O 216.931791 7.791566 -6.212959
C 216.131361 4.347900 -5.601314
C 216.159170 3.419692 -4.558823
C 217.777581 2.175589 -1.791271
C 219.062879 2.426798 -2.410494
C 219.972252 1.665985 -1.810846
N 217.987790 1.236058 -0.821409
C 219.312008 0.890904 -0.780163
C 219.976426 0.010725 0.013531
C 219.180671 -0.806937 1.112080
C 219.680172 -1.290628 2.304012
C 218.641223 -2.025679 2.930690
C 217.539066 -1.962646 2.103990
N 217.854536 -1.155404 1.040213
C 216.152855 -2.691597 2.326880
C 216.165436 -3.962074 3.084568
C 216.633427 -5.133801 2.475357
C 216.661224 -6.335880 3.184830
C 216.218391 -6.357854 4.514368
N 216.244925 -7.617636 5.265598
O 215.863563 -7.600245 6.446539
O 216.648177 -8.636333 4.682833
C 215.751299 -5.191870 5.136413
C 215.728896 -3.996218 4.416406
C 215.016013 -2.177969 1.789316
C 213.730713 -2.833993 1.916398
C 212.821323 -2.098787 1.285636
C 213.481564 -0.937925 0.723959
N 214.805795 -1.045040 1.054595
H 212.108194 2.843758 -0.613449
H 214.094805 4.288551 -1.762866
H 215.595798 0.490598 -0.747358
H 217.427479 5.378876 -2.078774
H 217.391956 7.050830 -3.903660
H 215.764398 4.032822 -6.574167
H 215.818648 2.397789 -4.718797
H 219.259193 3.103227 -3.222619
H 221.016482 1.640485 -2.064191
H 220.684838 -1.149690 2.673088
H 218.698268 -2.556475 3.868857
H 217.197976 -0.829333 0.336921
H 216.973106 -5.093662 1.441510
H 217.027347 -7.229791 2.687579
H 215.403654 -5.191332 6.165673
H 215.367965 -3.078010 4.877443
H 213.534399 -3.761333 2.423480
H 211.777078 -2.342411 1.211820
C 228.879967 0.010725 0.013531
C 229.675670 1.246413 -0.576906
C 229.175903 2.509012 -0.822317
C 230.214872 3.265788 -1.422524
C 231.317303 2.442738 -1.519396
N 231.001976 1.243373 -0.932111
C 232.703599 2.802203 -2.191497
C 232.691064 3.790922 -3.291820
C 233.128625 5.104011 -3.068493
C 233.106287 6.041289 -4.102665
C 232.638134 5.656352 -5.366508
N 232.611640 6.636649 -6.457575
O 232.206786 6.261953 -7.569188
O 232.994639 7.791566 -6.212959
C 232.194209 4.347900 -5.601314
C 232.222018 3.419692 -4.558823
C 233.840429 2.175589 -1.791271
C 235.125727 2.426798 -2.410494
C 236.035100 1.665985 -1.810846
N 234.050638 1.236058 -0.821409
C 235.374857 0.890904 -0.780163
C 236.039274 0.010725 0.013531
C 235.243519 -0.806937 1.112080
C 235.743021 -1.290628 2.304012
C 234.704071 -2.025679 2.930690
C 233.601914 -1.962646 2.103990
N 233.917384 -1.155404 1.040213
C 232.215703 -2.691597 2.326880
C 232.228284 -3.962074 3.084568
C 232.696275 -5.133801 2.475357
C 232.724072 -6.335880 3.184830
C 232.281239 -6.357854 4.514368
N 232.307773 -7.617636 5.265598
O 231.926412 -7.600245 6.446539
O 232.711025 -8.636333 4.682833
C 231.814147 -5.191870 5.136413
C 231.791744 -3.996218 4.416406
C 231.078862 -2.177969 1.789316
C 229.793561 -2.833993 1.916398
C 228.884171 -2.098787 1.285636
C 229.544412 -0.937925 0.723959
N 230.868643 -1.045040 1.054595
H 228.171042 2.843758 -0.613449
H 230.157653 4.288551 -1.762866
H 231.658646 0.490598 -0.747358
H 233.490327 5.378876 -2.078774
H 233.454804 7.050830 -3.903660
H 231.827246 4.032822 -6.574167
H 231.881496 2.397789 -4.718797
H 235.322041 3.103227 -3.222619
H 237.079330 1.640485 -2.064191
H 236.747686 -1.149690 2.673088
H 234.761116 -2.556475 3.868857
H 233.260824 -0.829333 0.336921
H 233.035954 -5.093662 1.441510
H 233.090195 -7.229791 2.687579
H 231.466503 -5.191332 6.165673
H 231.430813 -3.078010 4.877443
H 229.597248 -3.761333 2.423480
H 227.839926 -2.342411 1.211820
