258

C 37.245129 -0.027122 0.094494
C 37.973348 1.348842 0.173247
C 37.366040 2.570502 0.351615
C 38.388660 3.553336 0.304543
C 39.586130 2.897579 0.089467
N 39.325385 1.550313 0.058102
C 41.008971 3.566382 -0.113483
C 41.048368 5.032357 -0.317213
C 41.352717 5.883666 0.752049
C 41.381650 7.267370 0.565022
C 41.105150 7.807194 -0.695632
C 41.135944 9.226949 -0.891521
N 41.159669 10.376433 -1.055809
C 40.798454 6.959786 -1.766105
C 40.770230 5.575815 -1.575418
C 42.139244 2.809897 -0.136966
C 43.442337 3.390791 -0.389053
C 44.345764 2.418173 -0.372894
N 42.337362 1.464401 0.030814
C 43.669323 1.165451 -0.098402
C 44.340689 -0.014202 -0.013080
C 43.567543 -1.362198 0.313843
C 44.121243 -2.513624 0.841048
C 43.093929 -3.486780 0.913659
C 41.940235 -2.900690 0.438097
N 42.225678 -1.592106 0.131624
C 40.527155 -3.603538 0.283579
C 40.494775 -5.079316 0.196837
C 40.152415 -5.849927 1.315120
C 40.131015 -7.243102 1.229765
C 40.456290 -7.874470 0.024123
C 40.432626 -9.304771 -0.066095
N 40.414432 -10.463761 -0.139814
C 40.802944 -7.107890 -1.094510
C 40.821292 -5.714854 -1.006318
C 39.399809 -2.851037 0.199222
C 38.076412 -3.429673 0.043733
C 37.189084 -2.439492 0.006321
C 37.911383 -1.196734 0.119528
N 39.233779 -1.494453 0.228995
H 36.166283 -0.025677 -0.006524
H 36.308080 2.736430 0.484666
H 38.260385 4.621454 0.393398
H 40.024785 0.817702 -0.032320
H 41.571235 5.449838 1.726625
H 41.621468 7.909387 1.408144
H 40.582724 7.359919 -2.752445
H 40.534839 4.906649 -2.399843
H 43.655268 4.428359 -0.574744
H 45.398289 2.560748 -0.536753
H 45.154354 -2.647704 1.123848
H 43.192194 -4.504332 1.255880
H 41.537774 -0.896503 -0.147926
H 39.897943 -5.346190 2.245433
H 39.859630 -7.821966 2.108296
H 41.061157 -7.579107 -2.039312
H 41.084910 -5.106481 -1.870657
H 37.844877 -4.476529 -0.029141
H 36.123796 -2.539390 -0.100901
C 100.216086 0.028083 0.086676
C 99.487867 -1.271896 0.544422
C 100.095175 -2.395979 1.055018
C 99.072555 -3.353230 1.282720
C 97.875085 -2.782988 0.894006
N 98.135830 -1.497418 0.489752
C 96.452244 -3.481844 0.884757
C 96.412847 -4.946737 1.096127
C 96.108498 -5.467642 2.359735
C 96.079565 -6.848861 2.564304
C 96.356065 -7.717526 1.503134
C 96.325271 -9.135839 1.709201
N 96.301546 -10.285736 1.870575
C 96.662761 -7.200705 0.239446
C 96.690985 -5.818212 0.038318
C 95.321971 -2.761632 0.652130
C 94.018878 -3.389683 0.571266
C 93.115451 -2.450829 0.316703
N 95.123853 -1.422463 0.439681
C 93.791892 -1.171152 0.232532
C 93.120526 -0.014202 -0.013080
C 93.893672 1.371562 -0.073339
C 93.339972 2.624103 0.113391
C 94.367286 3.579149 -0.087089
C 95.520980 2.884051 -0.381196
N 95.235537 1.541828 -0.312235
C 96.934060 3.516348 -0.724811
C 96.966440 4.909997 -1.217950
C 97.308800 5.960837 -0.357638
C 97.330200 7.275517 -0.826507
C 97.004925 7.547259 -2.160057
C 97.028589 8.896256 -2.643907
N 97.046783 9.989192 -3.036567
C 96.658271 6.500195 -3.021823
C 96.639923 5.186436 -2.550268
C 98.061406 2.770017 -0.596889
C 99.384803 3.282718 -0.906944
C 100.272131 2.321091 -0.667921
C 99.549832 1.158647 -0.214065
N 98.227436 1.475054 -0.191577
H 101.294932 -0.001357 -0.009969
H 101.153135 -2.518434 1.228913
H 99.200830 -4.354665 1.664686
H 97.436430 -0.818730 0.199448
H 95.889980 -4.780246 3.175512
H 95.839747 -7.231502 3.552549
H 96.878491 -7.858998 -0.596989
H 96.926376 -5.404299 -0.939503
H 93.805947 -4.438008 0.681000
H 92.062926 -2.633299 0.198880
H 92.306861 2.831440 0.347836
H 94.269021 4.651713 -0.040891
H 95.923441 0.795954 -0.387629
H 97.563272 5.735250 0.675968
H 97.601585 8.075574 -0.143273
H 96.400058 6.690518 -4.060319
H 96.376305 4.361972 -3.211674
H 99.616338 4.268166 -1.267653
H 101.337419 2.387286 -0.798666
C 46.483901 0.000489 -0.002804
C 47.942127 -0.021348 -0.020678
C 49.076055 -0.042102 -0.022169
C 50.437437 -0.054691 -0.024360
C 51.711656 -0.044385 -0.029125
C 52.900118 -0.025587 -0.035281
C 54.252479 -0.000803 -0.019413
C 55.352746 0.000489 -0.002804
C 64.234166 0.000489 -0.002804
C 65.692393 -0.021348 -0.020678
C 66.826321 -0.042102 -0.022169
C 68.187702 -0.054691 -0.024360
C 69.461921 -0.044385 -0.029125
C 70.650384 -0.025587 -0.035281
C 72.002744 -0.000803 -0.019413
C 73.103012 0.000489 -0.002804
C 81.984432 0.000489 -0.002804
C 83.442658 -0.021348 -0.020678
C 84.576586 -0.042102 -0.022169
C 85.937968 -0.054691 -0.024360
C 87.212187 -0.044385 -0.029125
C 88.400649 -0.025587 -0.035281
C 89.753010 -0.000803 -0.019413
C 90.853277 0.000489 -0.002804
C 56.276427 0.014345 0.013886
C 57.071661 1.166076 -0.727851
C 56.570495 2.386444 -1.132611
C 57.609057 3.062169 -1.823329
C 58.712836 2.235313 -1.813305
N 58.398431 1.119883 -1.078547
C 60.099665 2.509044 -2.524551
C 60.087532 3.354428 -3.738916
C 59.610871 2.835593 -4.948352
C 59.584250 3.632277 -6.095192
C 60.033474 4.956432 -6.036711
C 60.007397 5.775518 -7.212684
N 59.986108 6.441499 -8.164715
C 60.507580 5.480942 -4.828871
C 60.531945 4.681549 -3.684131
C 61.236042 1.936785 -2.048211
C 62.521462 2.107964 -2.693835
C 63.430543 1.427903 -2.003581
N 61.445880 1.125762 -0.968255
C 62.770056 0.788207 -0.883883
C 63.434381 0.014345 0.013886
C 62.639165 -0.659086 1.206854
C 63.140416 -0.992309 2.448623
C 62.101861 -1.642513 3.163421
C 60.997980 -1.680341 2.337510
N 61.312331 -1.011643 1.181254
C 59.611155 -2.374468 2.652202
C 59.623474 -3.537913 3.566411
C 60.101777 -4.774826 3.118735
C 60.128607 -5.873746 3.980291
C 59.677971 -5.739382 5.298424
C 59.704211 -6.866150 6.183973
N 59.725575 -7.778271 6.903622
C 59.202276 -4.503722 5.751893
C 59.177733 -3.407032 4.887745
C 58.474748 -1.932186 2.053277
C 57.189378 -2.566925 2.261534
C 56.280288 -1.917443 1.542451
C 56.940724 -0.836742 0.838829
N 58.264857 -0.901138 1.180932
H 55.564902 2.743556 -0.969436
H 57.551160 4.032853 -2.292029
H 59.055968 0.397442 -0.799697
H 59.263441 1.804460 -4.982416
H 59.211565 3.207785 -7.023688
H 60.861041 6.506585 -4.764417
H 60.900296 5.076913 -2.739029
H 62.717228 2.677075 -3.584675
H 64.474640 1.370427 -2.252017
H 64.146059 -0.808823 2.795545
H 62.159802 -2.054112 4.159671
H 60.654718 -0.775002 0.444007
H 60.450337 -4.868017 2.091642
H 60.502563 -6.824836 3.610450
H 58.847703 -4.380530 6.771767
H 58.808186 -2.441023 5.227565
H 56.993660 -3.423274 2.881345
H 55.236236 -2.168966 1.499347
C 74.026692 0.014345 0.013886
C 74.821926 1.166076 -0.727851
C 74.320761 2.386444 -1.132611
C 75.359322 3.062169 -1.823329
C 76.463101 2.235313 -1.813305
N 76.148697 1.119883 -1.078547
C 77.849930 2.509044 -2.524551
C 77.837798 3.354428 -3.738916
C 77.361136 2.835593 -4.948352
C 77.334516 3.632277 -6.095192
C 77.783740 4.956432 -6.036711
C 77.757662 5.775518 -7.212684
N 77.736374 6.441499 -8.164715
C 78.257846 5.480942 -4.828871
C 78.282211 4.681549 -3.684131
C 78.986307 1.936785 -2.048211
C 80.271727 2.107964 -2.693835
C 81.180809 1.427903 -2.003581
N 79.196146 1.125762 -0.968255
C 80.520322 0.788207 -0.883883
C 81.184647 0.014345 0.013886
C 80.389430 -0.659086 1.206854
C 80.890682 -0.992309 2.448623
C 79.852127 -1.642513 3.163421
C 78.748246 -1.680341 2.337510
N 79.062596 -1.011643 1.181254
C 77.361421 -2.374468 2.652202
C 77.373740 -3.537913 3.566411
C 77.852043 -4.774826 3.118735
C 77.878872 -5.873746 3.980291
C 77.428237 -5.739382 5.298424
C 77.454476 -6.866150 6.183973
N 77.475840 -7.778271 6.903622
C 76.952541 -4.503722 5.751893
C 76.927998 -3.407032 4.887745
C 76.225014 -1.932186 2.053277
C 74.939643 -2.566925 2.261534
C 74.030553 -1.917443 1.542451
C 74.690989 -0.836742 0.838829
N 76.015122 -0.901138 1.180932
H 73.315167 2.743556 -0.969436
H 75.301425 4.032853 -2.292029
H 76.806234 0.397442 -0.799697
H 77.013706 1.804460 -4.982416
H 76.961831 3.207785 -7.023688
H 78.611307 6.506585 -4.764417
H 78.650561 5.076913 -2.739029
H 80.467494 2.677075 -3.584675
H 82.224905 1.370427 -2.252017
H 81.896324 -0.808823 2.795545
H 79.910068 -2.054112 4.159671
H 78.404983 -0.775002 0.444007
H 78.200603 -4.868017 2.091642
H 78.252828 -6.824836 3.610450
H 76.597968 -4.380530 6.771767
H 76.558452 -2.441023 5.227565
H 74.743925 -3.423274 2.881345
H 72.986501 -2.168966 1.499347
