126

Co 17.331741 -0.029129 0.001106
C 13.998602 0.121883 0.107515
C 14.665414 1.278829 0.086116
C 14.017043 2.584447 0.084911
C 14.960683 3.506517 0.076950
C 16.265830 2.831467 0.074882
N 16.085848 1.415242 0.079918
C 17.459780 3.456359 0.104799
C 17.497304 4.935062 0.112314
C 17.287965 5.650337 -1.074660
C 17.309619 7.048676 -1.071722
O 17.095342 7.729854 -2.270110
C 17.542683 7.744335 0.128429
O 17.558312 9.139868 0.124364
C 17.756459 7.028321 1.320521
O 17.989304 7.711019 2.513162
C 17.733982 5.627091 1.307128
C 18.757988 2.732254 0.143155
C 20.057261 3.401780 0.274579
C 20.991587 2.474610 0.259924
N 18.892611 1.444479 0.042570
C 20.298482 1.200708 0.108396
C 20.893691 0.000000 0.000000
C 20.140732 -1.265531 -0.180151
C 20.706021 -2.427473 -0.485279
C 19.658525 -3.426533 -0.515476
C 18.516836 -2.812365 -0.229420
N 18.730586 -1.415648 -0.003131
C 17.207725 -3.506079 -0.110951
C 17.188909 -4.984861 -0.129557
C 17.335539 -5.702863 1.063851
C 17.314255 -7.101325 1.054994
O 17.455984 -7.786609 2.261725
C 17.150928 -7.793291 -0.158991
O 17.134097 -9.188725 -0.160007
C 17.009024 -7.073510 -1.359535
O 16.851584 -7.752914 -2.566745
C 17.027197 -5.672198 -1.339521
C 16.045051 -2.840904 0.011143
C 14.721121 -3.449075 0.129859
C 13.862110 -2.450432 0.181594
C 14.628221 -1.207801 0.101600
N 15.902954 -1.422553 0.001156
H 12.915718 0.154667 0.132135
H 12.952416 2.780207 0.094025
H 14.777003 4.573167 0.083508
H 17.104233 5.120015 -2.001351
H 17.100316 8.741293 -2.323085
H 17.708685 9.680123 0.967370
H 18.145617 7.218694 3.385083
H 17.896708 5.076492 2.225788
H 20.240827 4.464340 0.364492
H 22.055375 2.657786 0.334680
H 21.755673 -2.612381 -0.667252
H 19.793419 -4.481298 -0.718420
H 17.462714 -5.175108 2.001300
H 17.437667 -8.797676 2.312093
H 17.020204 -9.726843 -1.010434
H 16.751746 -7.258614 -3.446162
H 16.916857 -5.118715 -2.264566
H 14.469229 -4.501234 0.164352
H 12.787112 -2.548235 0.265039
Co 28.093782 0.028816 0.004400
C 31.426921 -0.133284 0.093007
C 30.760109 -1.280348 -0.059389
C 31.408480 -2.577416 -0.208572
C 30.464840 -3.492642 -0.320994
C 29.159693 -2.821708 -0.246535
N 29.339675 -1.415180 -0.081009
C 27.965743 -3.445963 -0.287639
C 27.928219 -4.915989 -0.447777
C 28.137558 -5.492116 -1.708175
C 28.115904 -6.881777 -1.863752
O 28.330181 -7.422733 -3.131625
C 27.882840 -7.708984 -0.750184
O 27.867211 -9.095063 -0.912401
C 27.669065 -7.132703 0.515382
O 27.436219 -7.946183 1.622957
C 27.691541 -5.738985 0.660899
C 26.667535 -2.730872 -0.167457
C 25.368262 -3.410980 -0.112767
C 24.433936 -2.488124 -0.022237
N 26.532912 -1.439996 -0.121430
C 25.127041 -1.205257 -0.028397
C 24.531832 -0.000000 -0.000000
C 25.284791 1.277795 -0.035548
C 24.719502 2.466833 -0.207008
C 25.766998 3.462878 -0.123772
C 26.908688 2.820245 0.090828
N 26.694937 1.406879 0.157347
C 28.217798 3.496061 0.287163
C 28.236614 4.967421 0.436290
C 28.089984 5.545529 1.703390
C 28.111268 6.935982 1.853099
O 27.969540 7.480073 3.129727
C 28.274595 7.761089 0.725369
O 28.291426 9.147646 0.882525
C 28.416499 7.182023 -0.549023
O 28.573939 7.993880 -1.671445
C 28.398327 5.787473 -0.687971
C 29.380472 2.821333 0.333075
C 30.704402 3.412129 0.519959
C 31.563413 2.414058 0.458169
C 30.797302 1.188501 0.237845
N 29.522569 1.413255 0.162389
H 32.509805 -0.168648 0.113753
H 32.473107 -2.772947 -0.221705
H 30.648520 -4.553161 -0.435378
H 28.321290 -4.860175 -2.568785
H 28.325207 -8.421650 -3.298901
H 27.716838 -9.727388 -0.136063
H 27.279906 -7.555859 2.545062
H 27.528815 -5.296060 1.636046
H 25.184696 -4.476883 -0.143870
H 23.370148 -2.678593 0.031274
H 23.669850 2.671176 -0.366850
H 25.632105 4.533849 -0.205855
H 27.962809 4.914919 2.574979
H 27.987856 8.478915 3.294370
H 28.405319 9.778687 0.098572
H 28.673777 7.602444 -2.601222
H 28.508666 5.342407 -1.669788
H 30.956294 4.453598 0.673488
H 32.638411 2.501772 0.552162
C 22.101803 0.000000 0.000000
C 23.323720 0.000000 0.000000
