 xtb: 6.5.1 (b24c23e)
          07302203083D

126145  0     0  0            999 V2000
   17.3026    0.0816    0.0359 Co  0  0  0  0  0  0  0  0  0  0  0  0
   13.9365    0.1237    0.2742 C   0  0  0  0  0  0  0  0  0  0  0  0
   14.5891    1.3061   -0.0020 C   0  0  0  0  0  0  0  0  0  0  0  0
   13.9201    2.5525   -0.2194 C   0  0  0  0  0  0  0  0  0  0  0  0
   14.8823    3.5013   -0.2944 C   0  0  0  0  0  0  0  0  0  0  0  0
   16.1390    2.8332   -0.1187 C   0  0  0  0  0  0  0  0  0  0  0  0
   15.9494    1.4809    0.0154 N   0  0  0  0  0  0  0  0  0  0  0  0
   17.3442    3.4905    0.0876 C   0  0  0  0  0  0  0  0  0  0  0  0
   17.3589    4.9746    0.0960 C   0  0  0  0  0  0  0  0  0  0  0  0
   17.0824    5.6821   -1.0731 C   0  0  0  0  0  0  0  0  0  0  0  0
   17.0978    7.0723   -1.0648 C   0  0  0  0  0  0  0  0  0  0  0  0
   16.8385    7.7716   -2.1963 O   0  0  0  0  0  0  0  0  0  0  0  0
   17.3821    7.7574    0.1176 C   0  0  0  0  0  0  0  0  0  0  0  0
   17.3861    9.1275    0.0964 O   0  0  0  0  0  0  0  0  0  0  0  0
   17.6531    7.0491    1.2856 C   0  0  0  0  0  0  0  0  0  0  0  0
   17.9182    7.7908    2.4065 O   0  0  0  0  0  0  0  0  0  0  0  0
   17.6465    5.6596    1.2790 C   0  0  0  0  0  0  0  0  0  0  0  0
   18.5286    2.8036    0.3064 C   0  0  0  0  0  0  0  0  0  0  0  0
   19.7902    3.4387    0.5415 C   0  0  0  0  0  0  0  0  0  0  0  0
   20.7288    2.4625    0.5241 C   0  0  0  0  0  0  0  0  0  0  0  0
   18.6929    1.4422    0.1826 N   0  0  0  0  0  0  0  0  0  0  0  0
   20.0424    1.2376    0.2617 C   0  0  0  0  0  0  0  0  0  0  0  0
   20.6977    0.0350   -0.0110 C   0  0  0  0  0  0  0  0  0  0  0  0
   19.9976   -1.1419   -0.2872 C   0  0  0  0  0  0  0  0  0  0  0  0
   20.6338   -2.3717   -0.6368 C   0  0  0  0  0  0  0  0  0  0  0  0
   19.6640   -3.3169   -0.6685 C   0  0  0  0  0  0  0  0  0  0  0  0
   18.4348   -2.6593   -0.3416 C   0  0  0  0  0  0  0  0  0  0  0  0
   18.6483   -1.3121   -0.1534 N   0  0  0  0  0  0  0  0  0  0  0  0
   17.2491   -3.3257   -0.0700 C   0  0  0  0  0  0  0  0  0  0  0  0
   17.2252   -4.8074   -0.1504 C   0  0  0  0  0  0  0  0  0  0  0  0
   17.0238   -5.5670    1.0015 C   0  0  0  0  0  0  0  0  0  0  0  0
   17.0120   -6.9551    0.9262 C   0  0  0  0  0  0  0  0  0  0  0  0
   16.8254   -7.7046    2.0398 O   0  0  0  0  0  0  0  0  0  0  0  0
   17.1950   -7.5862   -0.3053 C   0  0  0  0  0  0  0  0  0  0  0  0
   17.1772   -8.9556   -0.3488 O   0  0  0  0  0  0  0  0  0  0  0  0
   17.3914   -6.8260   -1.4555 C   0  0  0  0  0  0  0  0  0  0  0  0
   17.5603   -7.5161   -2.6269 O   0  0  0  0  0  0  0  0  0  0  0  0
   17.4111   -5.4385   -1.3826 C   0  0  0  0  0  0  0  0  0  0  0  0
   16.0892   -2.6500    0.2834 C   0  0  0  0  0  0  0  0  0  0  0  0
   14.8425   -3.2942    0.5784 C   0  0  0  0  0  0  0  0  0  0  0  0
   13.9118   -2.3177    0.6851 C   0  0  0  0  0  0  0  0  0  0  0  0
   14.5872   -1.0794    0.4410 C   0  0  0  0  0  0  0  0  0  0  0  0
   15.9300   -1.2876    0.2478 N   0  0  0  0  0  0  0  0  0  0  0  0
   12.8554    0.1380    0.3479 H   0  0  0  0  0  0  0  0  0  0  0  0
   12.8501    2.6673   -0.2897 H   0  0  0  0  0  0  0  0  0  0  0  0
   14.7647    4.5638   -0.4321 H   0  0  0  0  0  0  0  0  0  0  0  0
   16.8724    5.1598   -1.9974 H   0  0  0  0  0  0  0  0  0  0  0  0
   16.8960    8.7191   -1.9892 H   0  0  0  0  0  0  0  0  0  0  0  0
   17.5995    9.4395    0.9902 H   0  0  0  0  0  0  0  0  0  0  0  0
   18.0926    7.2183    3.1650 H   0  0  0  0  0  0  0  0  0  0  0  0
   17.8451    5.1141    2.1940 H   0  0  0  0  0  0  0  0  0  0  0  0
   19.9316    4.4980    0.6811 H   0  0  0  0  0  0  0  0  0  0  0  0
   21.7945    2.5518    0.6577 H   0  0  0  0  0  0  0  0  0  0  0  0
   21.6894   -2.4848   -0.8228 H   0  0  0  0  0  0  0  0  0  0  0  0
   19.7657   -4.3703   -0.8728 H   0  0  0  0  0  0  0  0  0  0  0  0
   16.8959   -5.0877    1.9634 H   0  0  0  0  0  0  0  0  0  0  0  0
   16.8503   -8.6416    1.7846 H   0  0  0  0  0  0  0  0  0  0  0  0
   17.3191   -9.2273   -1.2695 H   0  0  0  0  0  0  0  0  0  0  0  0
   17.6876   -6.9097   -3.3683 H   0  0  0  0  0  0  0  0  0  0  0  0
   17.5528   -4.8522   -2.2829 H   0  0  0  0  0  0  0  0  0  0  0  0
   14.7071   -4.3595    0.6704 H   0  0  0  0  0  0  0  0  0  0  0  0
   12.8560   -2.4081    0.8852 H   0  0  0  0  0  0  0  0  0  0  0  0
   28.1229   -0.0851    0.0265 Co  0  0  0  0  0  0  0  0  0  0  0  0
   31.4890   -0.1543    0.2584 C   0  0  0  0  0  0  0  0  0  0  0  0
   30.8363   -1.2977   -0.1500 C   0  0  0  0  0  0  0  0  0  0  0  0
   31.5052   -2.5115   -0.5074 C   0  0  0  0  0  0  0  0  0  0  0  0
   30.5429   -3.4455   -0.6894 C   0  0  0  0  0  0  0  0  0  0  0  0
   29.2863   -2.8016   -0.4391 C   0  0  0  0  0  0  0  0  0  0  0  0
   29.4760   -1.4732   -0.1525 N   0  0  0  0  0  0  0  0  0  0  0  0
   28.0810   -3.4779   -0.3086 C   0  0  0  0  0  0  0  0  0  0  0  0
   28.0662   -4.9535   -0.4684 C   0  0  0  0  0  0  0  0  0  0  0  0
   28.3426   -5.5239   -1.7102 C   0  0  0  0  0  0  0  0  0  0  0  0
   28.3270   -6.9060   -1.8596 C   0  0  0  0  0  0  0  0  0  0  0  0
   28.5862   -7.4727   -3.0631 O   0  0  0  0  0  0  0  0  0  0  0  0
   28.0427   -7.7207   -0.7624 C   0  0  0  0  0  0  0  0  0  0  0  0
   28.0385   -9.0796   -0.9388 O   0  0  0  0  0  0  0  0  0  0  0  0
   27.7717   -7.1494    0.4783 C   0  0  0  0  0  0  0  0  0  0  0  0
   27.5066   -8.0133    1.5080 O   0  0  0  0  0  0  0  0  0  0  0  0
   27.7785   -5.7681    0.6293 C   0  0  0  0  0  0  0  0  0  0  0  0
   26.8967   -2.8202   -0.0133 C   0  0  0  0  0  0  0  0  0  0  0  0
   25.6351   -3.4777    0.1484 C   0  0  0  0  0  0  0  0  0  0  0  0
   24.6966   -2.5058    0.2418 C   0  0  0  0  0  0  0  0  0  0  0  0
   26.7326   -1.4535    0.0180 N   0  0  0  0  0  0  0  0  0  0  0  0
   25.3830   -1.2590    0.1199 C   0  0  0  0  0  0  0  0  0  0  0  0
   24.7279   -0.0332   -0.0148 C   0  0  0  0  0  0  0  0  0  0  0  0
   25.4281    1.1674   -0.1558 C   0  0  0  0  0  0  0  0  0  0  0  0
   24.7920    2.4289   -0.3636 C   0  0  0  0  0  0  0  0  0  0  0  0
   25.7618    3.3715   -0.2881 C   0  0  0  0  0  0  0  0  0  0  0  0
   26.9910    2.6809   -0.0379 C   0  0  0  0  0  0  0  0  0  0  0  0
   26.7773    1.3211   -0.0037 N   0  0  0  0  0  0  0  0  0  0  0  0
   28.1767    3.3122    0.3074 C   0  0  0  0  0  0  0  0  0  0  0  0
   28.2008    4.7934    0.3955 C   0  0  0  0  0  0  0  0  0  0  0  0
   28.4023    5.4175    1.6260 C   0  0  0  0  0  0  0  0  0  0  0  0
   28.4142    6.8053    1.7085 C   0  0  0  0  0  0  0  0  0  0  0  0
   28.6009    7.4237    2.8999 O   0  0  0  0  0  0  0  0  0  0  0  0
   28.2313    7.5719    0.5565 C   0  0  0  0  0  0  0  0  0  0  0  0
   28.2492    8.9374    0.6685 O   0  0  0  0  0  0  0  0  0  0  0  0
   28.0349    6.9470   -0.6724 C   0  0  0  0  0  0  0  0  0  0  0  0
   27.8660    7.7654   -1.7580 O   0  0  0  0  0  0  0  0  0  0  0  0
   28.0150    5.5602   -0.7573 C   0  0  0  0  0  0  0  0  0  0  0  0
   29.3366    2.6007    0.5819 C   0  0  0  0  0  0  0  0  0  0  0  0
   30.5834    3.2072    0.9480 C   0  0  0  0  0  0  0  0  0  0  0  0
   31.5140    2.2248    0.9433 C   0  0  0  0  0  0  0  0  0  0  0  0
   30.8385    1.0222    0.5605 C   0  0  0  0  0  0  0  0  0  0  0  0
   29.4957    1.2511    0.3922 N   0  0  0  0  0  0  0  0  0  0  0  0
   32.5701   -0.1770    0.3300 H   0  0  0  0  0  0  0  0  0  0  0  0
   32.5752   -2.6177   -0.5902 H   0  0  0  0  0  0  0  0  0  0  0  0
   30.6604   -4.4856   -0.9467 H   0  0  0  0  0  0  0  0  0  0  0  0
   28.5527   -4.9002   -2.5694 H   0  0  0  0  0  0  0  0  0  0  0  0
   28.5286   -8.4374   -2.9647 H   0  0  0  0  0  0  0  0  0  0  0  0
   27.8251   -9.4908   -0.0861 H   0  0  0  0  0  0  0  0  0  0  0  0
   27.3322   -7.5304    2.3265 H   0  0  0  0  0  0  0  0  0  0  0  0
   27.5800   -5.3298    1.6002 H   0  0  0  0  0  0  0  0  0  0  0  0
   25.4935   -4.5460    0.1671 H   0  0  0  0  0  0  0  0  0  0  0  0
   23.6308   -2.6095    0.3645 H   0  0  0  0  0  0  0  0  0  0  0  0
   23.7364    2.5624   -0.5356 H   0  0  0  0  0  0  0  0  0  0  0  0
   25.6602    4.4412   -0.3715 H   0  0  0  0  0  0  0  0  0  0  0  0
   28.5301    4.8324    2.5274 H   0  0  0  0  0  0  0  0  0  0  0  0
   28.5761    8.3836    2.7526 H   0  0  0  0  0  0  0  0  0  0  0  0
   28.1074    9.3117   -0.2155 H   0  0  0  0  0  0  0  0  0  0  0  0
   27.7387    7.2470   -2.5635 H   0  0  0  0  0  0  0  0  0  0  0  0
   27.8732    5.0797   -1.7182 H   0  0  0  0  0  0  0  0  0  0  0  0
   30.7188    4.2552    1.1601 H   0  0  0  0  0  0  0  0  0  0  0  0
   32.5698    2.2919    1.1524 H   0  0  0  0  0  0  0  0  0  0  0  0
   22.1043    0.0111   -0.0214 C   0  0  0  0  0  0  0  0  0  0  0  0
   23.3212   -0.0082   -0.0224 C   0  0  0  0  0  0  0  0  0  0  0  0
  2  3  4  0  0  0  0
  3  4  1  0  0  0  0
  4  5  2  0  0  0  0
  5  6  4  0  0  0  0
  1  7  1  0  0  0  0
  3  7  4  0  0  0  0
  6  7  4  0  0  0  0
  6  8  4  0  0  0  0
  8  9  1  0  0  0  0
  9 10  4  0  0  0  0
 10 11  4  0  0  0  0
 11 12  1  0  0  0  0
 11 13  4  0  0  0  0
 13 14  1  0  0  0  0
 13 15  4  0  0  0  0
 15 16  1  0  0  0  0
  9 17  4  0  0  0  0
 15 17  4  0  0  0  0
  8 18  4  0  0  0  0
 18 19  4  0  0  0  0
 19 20  2  0  0  0  0
  1 21  1  0  0  0  0
 18 21  4  0  0  0  0
 20 22  4  0  0  0  0
 21 22  4  0  0  0  0
 22 23  4  0  0  0  0
 23 24  4  0  0  0  0
 24 25  4  0  0  0  0
 25 26  2  0  0  0  0
 26 27  4  0  0  0  0
  1 28  1  0  0  0  0
 24 28  4  0  0  0  0
 27 28  4  0  0  0  0
 27 29  4  0  0  0  0
 29 30  1  0  0  0  0
 30 31  4  0  0  0  0
 31 32  4  0  0  0  0
 32 33  1  0  0  0  0
 32 34  4  0  0  0  0
 34 35  1  0  0  0  0
 34 36  4  0  0  0  0
 36 37  1  0  0  0  0
 30 38  4  0  0  0  0
 36 38  4  0  0  0  0
 29 39  4  0  0  0  0
 39 40  4  0  0  0  0
 40 41  2  0  0  0  0
  2 42  4  0  0  0  0
 41 42  1  0  0  0  0
  1 43  1  0  0  0  0
 39 43  4  0  0  0  0
 42 43  4  0  0  0  0
  2 44  1  0  0  0  0
  4 45  1  0  0  0  0
  5 46  1  0  0  0  0
 10 47  1  0  0  0  0
 12 48  1  0  0  0  0
 14 49  1  0  0  0  0
 16 50  1  0  0  0  0
 17 51  1  0  0  0  0
 19 52  1  0  0  0  0
 20 53  1  0  0  0  0
 25 54  1  0  0  0  0
 26 55  1  0  0  0  0
 31 56  1  0  0  0  0
 33 57  1  0  0  0  0
 35 58  1  0  0  0  0
 37 59  1  0  0  0  0
 38 60  1  0  0  0  0
 40 61  1  0  0  0  0
 41 62  1  0  0  0  0
 64 65  4  0  0  0  0
 65 66  1  0  0  0  0
 66 67  2  0  0  0  0
 67 68  4  0  0  0  0
 63 69  1  0  0  0  0
 65 69  4  0  0  0  0
 68 69  4  0  0  0  0
 68 70  4  0  0  0  0
 70 71  1  0  0  0  0
 71 72  4  0  0  0  0
 72 73  4  0  0  0  0
 73 74  1  0  0  0  0
 73 75  4  0  0  0  0
 75 76  1  0  0  0  0
 75 77  4  0  0  0  0
 77 78  1  0  0  0  0
 71 79  4  0  0  0  0
 77 79  4  0  0  0  0
 70 80  4  0  0  0  0
 80 81  4  0  0  0  0
 81 82  2  0  0  0  0
 63 83  1  0  0  0  0
 80 83  4  0  0  0  0
 82 84  4  0  0  0  0
 83 84  4  0  0  0  0
 84 85  4  0  0  0  0
 85 86  4  0  0  0  0
 86 87  4  0  0  0  0
 87 88  2  0  0  0  0
 88 89  4  0  0  0  0
 63 90  1  0  0  0  0
 86 90  4  0  0  0  0
 89 90  4  0  0  0  0
 89 91  4  0  0  0  0
 91 92  1  0  0  0  0
 92 93  4  0  0  0  0
 93 94  4  0  0  0  0
 94 95  1  0  0  0  0
 94 96  4  0  0  0  0
 96 97  1  0  0  0  0
 96 98  4  0  0  0  0
 98 99  1  0  0  0  0
 92100  4  0  0  0  0
 98100  4  0  0  0  0
 91101  4  0  0  0  0
101102  4  0  0  0  0
102103  2  0  0  0  0
 64104  4  0  0  0  0
103104  1  0  0  0  0
 63105  1  0  0  0  0
101105  4  0  0  0  0
104105  4  0  0  0  0
 64106  1  0  0  0  0
 66107  1  0  0  0  0
 67108  1  0  0  0  0
 72109  1  0  0  0  0
 74110  1  0  0  0  0
 76111  1  0  0  0  0
 78112  1  0  0  0  0
 79113  1  0  0  0  0
 81114  1  0  0  0  0
 82115  1  0  0  0  0
 87116  1  0  0  0  0
 88117  1  0  0  0  0
 93118  1  0  0  0  0
 95119  1  0  0  0  0
 97120  1  0  0  0  0
 99121  1  0  0  0  0
100122  1  0  0  0  0
102123  1  0  0  0  0
103124  1  0  0  0  0
 23125  1  0  0  0  0
 85126  1  0  0  0  0
125126  3  0  0  0  0
M  END
