114

C 8.585610 -0.015741 -0.013862
C 9.313565 1.359866 0.082114
C 8.705811 2.594392 0.063664
C 9.728170 3.563424 0.235903
C 10.925381 2.885747 0.361849
N 10.666107 1.546428 0.212487
C 12.346938 3.522360 0.653825
C 12.383711 4.936876 1.086366
C 12.671086 5.948651 0.171712
C 12.682630 7.256136 0.625430
N 12.428577 7.620636 1.904315
C 12.154373 6.612126 2.765331
C 12.118957 5.274353 2.412055
C 13.478147 2.773881 0.554811
C 14.782487 3.311012 0.885518
C 15.685353 2.351615 0.719676
N 13.675003 1.470345 0.183615
C 15.006677 1.155046 0.262776
C 15.674600 0.000226 0.000064
C 14.895136 -1.278292 -0.524061
C 15.429687 -2.311321 -1.268727
C 14.404221 -3.268808 -1.469272
C 13.270016 -2.788578 -0.849959
N 13.563788 -1.552019 -0.325728
C 11.864112 -3.517399 -0.772606
C 11.839601 -4.988044 -0.916906
C 12.236220 -5.803124 0.140883
C 12.210931 -7.174634 -0.045033
N 11.826611 -7.781357 -1.192991
C 11.448676 -6.959382 -2.199918
C 11.439662 -5.577951 -2.115088
C 10.737703 -2.789925 -0.557293
C 9.418489 -3.389658 -0.458327
C 8.532062 -2.418367 -0.260773
C 9.250828 -1.168929 -0.212969
N 10.570902 -1.444215 -0.387171
H 7.508901 -0.029809 0.106099
H 7.647560 2.776266 -0.044158
H 9.599311 4.634066 0.287976
H 11.366361 0.808833 0.203716
H 12.883315 5.705622 -0.863868
H 12.905095 8.072210 -0.054169
H 11.955463 6.916059 3.787807
H 11.894459 4.501663 3.139413
H 14.996088 4.309640 1.222565
H 16.738971 2.467067 0.897362
H 16.448230 -2.378292 -1.619909
H 14.486763 -4.204974 -2.000658
H 12.884078 -0.920768 0.090473
H 12.553488 -5.365251 1.081145
H 12.511152 -7.843212 0.755160
H 11.140786 -7.456391 -3.113951
H 11.127034 -4.960659 -2.950545
H 9.189711 -4.437786 -0.527828
H 7.470001 -2.537211 -0.144825
C 29.798267 0.020799 -0.005002
C 29.070312 -1.246004 -0.549721
C 29.678066 -2.334984 -1.131542
C 28.655708 -3.275291 -1.422252
C 27.458496 -2.730555 -0.999913
N 27.717770 -1.471559 -0.519272
C 26.036939 -3.430198 -1.031934
C 26.000166 -4.885737 -1.295284
C 25.712791 -5.366237 -2.571764
C 25.701247 -6.736329 -2.767267
N 25.955300 -7.646089 -1.797347
C 26.229504 -7.143924 -0.570044
C 26.264920 -5.792910 -0.271379
C 24.905730 -2.719489 -0.777144
C 23.601390 -3.348437 -0.729172
C 22.698524 -2.419625 -0.437187
N 24.708874 -1.390702 -0.510091
C 23.377200 -1.146674 -0.295313
C 22.709277 0.000226 0.000064
C 23.488741 1.376816 0.119712
C 22.954190 2.636188 -0.069125
C 23.979656 3.579196 0.191135
C 25.113861 2.868647 0.521726
N 24.820089 1.529308 0.421389
C 26.519765 3.481104 0.924293
C 26.544276 4.854523 1.469582
C 26.147657 5.094613 2.783213
C 26.172946 6.398967 3.246103
N 26.557266 7.464085 2.503510
C 26.935201 7.194569 1.231934
C 26.944215 5.927695 0.674640
C 27.646174 2.735801 0.782508
C 28.965388 3.223607 1.145164
C 29.851816 2.269697 0.875923
C 29.133049 1.137117 0.346169
N 27.812975 1.461617 0.317395
H 30.874976 -0.021638 0.108081
H 30.736317 -2.447278 -1.310689
H 28.784566 -4.250887 -1.866323
H 27.017516 -0.811858 -0.189246
H 25.500562 -4.675895 -3.381032
H 25.478782 -7.150517 -3.745162
H 26.428414 -7.882406 0.199683
H 26.489418 -5.439162 0.729101
H 23.387789 -4.390536 -0.886932
H 21.644907 -2.603638 -0.332111
H 21.935647 2.856565 -0.350634
H 23.897114 4.654778 0.147531
H 25.499799 0.777536 0.502254
H 25.830389 4.274722 3.418510
H 25.872725 6.626806 4.263648
H 27.243091 8.055018 0.647038
H 27.256843 5.761597 -0.350762
H 29.194166 4.187171 1.563431
H 30.913876 2.322239 1.033427
C 18.452708 0.012958 0.002589
C 17.200437 -0.006223 -0.001759
C 19.766376 0.012192 0.004521
C 21.269510 -0.006223 -0.001759
