366

C 46.942752 -0.018272 -0.015575
C 47.670708 1.357335 0.080401
C 47.062953 2.591861 0.061952
C 48.085312 3.560893 0.234191
C 49.282523 2.883216 0.360136
N 49.023249 1.543897 0.210775
C 50.704080 3.519829 0.652112
C 50.740854 4.934345 1.084653
C 51.028228 5.946120 0.169999
C 51.039772 7.253604 0.623717
N 50.785719 7.618105 1.902602
C 50.511515 6.609595 2.763618
C 50.476100 5.271822 2.410343
C 51.835289 2.771350 0.553098
C 53.139630 3.308481 0.883805
C 54.042495 2.349084 0.717964
N 52.032146 1.467814 0.181903
C 53.363820 1.152515 0.261063
C 54.031743 -0.002305 -0.001649
C 53.252278 -1.280823 -0.525774
C 53.786830 -2.313852 -1.270440
C 52.761364 -3.271339 -1.470985
C 51.627159 -2.791109 -0.851671
N 51.920930 -1.554550 -0.327441
C 50.221254 -3.519931 -0.774318
C 50.196743 -4.990575 -0.918618
C 50.593362 -5.805655 0.139170
C 50.568074 -7.177165 -0.046746
N 50.183754 -7.783888 -1.194704
C 49.805818 -6.961913 -2.201631
C 49.796804 -5.580482 -2.116801
C 49.094845 -2.792456 -0.559006
C 47.775632 -3.392189 -0.460040
C 46.889204 -2.420898 -0.262486
C 47.607971 -1.171460 -0.214682
N 48.928044 -1.446747 -0.388883
H 45.866043 -0.032341 0.104387
H 46.004702 2.773734 -0.045870
H 47.956454 4.631535 0.286264
H 49.723504 0.806302 0.202003
H 51.240457 5.703091 -0.865581
H 51.262237 8.069678 -0.055881
H 50.312606 6.913528 3.786094
H 50.251601 4.499132 3.137700
H 53.353231 4.307109 1.220852
H 55.096113 2.464536 0.895649
H 54.805373 -2.380823 -1.621622
H 52.843905 -4.207506 -2.002370
H 51.241220 -0.923299 0.088760
H 50.910630 -5.367782 1.079432
H 50.868294 -7.845744 0.753448
H 49.497928 -7.458922 -3.115664
H 49.484176 -4.963190 -2.952257
H 47.546854 -4.440317 -0.529541
H 45.827143 -2.539742 -0.146537
C 152.878478 0.018268 -0.006715
C 152.150523 -1.248535 -0.551434
C 152.758278 -2.337515 -1.133254
C 151.735919 -3.277822 -1.423965
C 150.538708 -2.733086 -1.001626
N 150.797981 -1.474090 -0.520985
C 149.117151 -3.432729 -1.033647
C 149.080377 -4.888269 -1.296996
C 148.793002 -5.368768 -2.573476
C 148.781459 -6.738860 -2.768980
N 149.035511 -7.648620 -1.799059
C 149.309715 -7.146456 -0.571756
C 149.345131 -5.795442 -0.273092
C 147.985941 -2.722020 -0.778857
C 146.681601 -3.350968 -0.730884
C 145.778735 -2.422156 -0.438900
N 147.789085 -1.393233 -0.511804
C 146.457411 -1.149205 -0.297026
C 145.789488 -0.002305 -0.001649
C 146.568952 1.374285 0.117999
C 146.034401 2.633657 -0.070837
C 147.059867 3.576665 0.189423
C 148.194072 2.866116 0.520013
N 147.900300 1.526777 0.419676
C 149.599976 3.478573 0.922581
C 149.624487 4.851992 1.467869
C 149.227869 5.092082 2.781500
C 149.253157 6.396436 3.244391
N 149.637477 7.461554 2.501797
C 150.015413 7.192038 1.230221
C 150.024426 5.925164 0.672927
C 150.726386 2.733270 0.780795
C 152.045599 3.221076 1.143452
C 152.932027 2.267166 0.874210
C 152.213260 1.134585 0.344456
N 150.893186 1.459086 0.315682
H 153.955187 -0.024169 0.106368
H 153.816528 -2.449809 -1.312402
H 151.864777 -4.253418 -1.868035
H 150.097727 -0.814389 -0.190959
H 148.580774 -4.678426 -3.382745
H 148.558993 -7.153049 -3.746875
H 149.508625 -7.884937 0.197970
H 149.569629 -5.441694 0.727389
H 146.468000 -4.393067 -0.888645
H 144.725118 -2.606169 -0.333824
H 145.015858 2.854034 -0.352347
H 146.977326 4.652247 0.145818
H 148.580010 0.775004 0.500541
H 148.910600 4.272191 3.416797
H 148.952936 6.624275 4.261935
H 150.323302 8.052486 0.645325
H 150.337054 5.759066 -0.352475
H 152.274377 4.184640 1.561718
H 153.994087 2.319708 1.031714
C 57.196187 0.010206 0.007103
C 58.654413 -0.011630 -0.010771
C 59.788341 -0.032384 -0.012262
C 61.149723 -0.044974 -0.014453
C 62.423942 -0.034668 -0.019218
C 63.612404 -0.015869 -0.025374
C 64.964765 0.008915 -0.009506
C 66.065032 0.010206 0.007103
C 76.309781 0.010206 0.007103
C 77.768007 -0.011630 -0.010771
C 78.901935 -0.032384 -0.012262
C 80.263317 -0.044974 -0.014453
C 81.537536 -0.034668 -0.019218
C 82.725998 -0.015869 -0.025374
C 84.078359 0.008915 -0.009506
C 85.178626 0.010206 0.007103
C 95.423375 0.010206 0.007103
C 96.881601 -0.011630 -0.010771
C 98.015529 -0.032384 -0.012262
C 99.376911 -0.044974 -0.014453
C 100.651130 -0.034668 -0.019218
C 101.839592 -0.015869 -0.025374
C 103.191953 0.008915 -0.009506
C 104.292220 0.010206 0.007103
C 114.536968 0.010206 0.007103
C 115.995195 -0.011630 -0.010771
C 117.129123 -0.032384 -0.012262
C 118.490505 -0.044974 -0.014453
C 119.764723 -0.034668 -0.019218
C 120.953186 -0.015869 -0.025374
C 122.305547 0.008915 -0.009506
C 123.405814 0.010206 0.007103
C 133.650562 0.010206 0.007103
C 135.108788 -0.011630 -0.010771
C 136.242717 -0.032384 -0.012262
C 137.604098 -0.044974 -0.014453
C 138.878317 -0.034668 -0.019218
C 140.066780 -0.015869 -0.025374
C 141.419140 0.008915 -0.009506
C 142.519408 0.010206 0.007103
C 67.660390 -0.000716 -0.000476
C 68.456171 -1.246215 0.570636
C 67.955777 -2.241573 1.383155
C 68.993978 -3.187417 1.583900
C 70.097462 -2.736713 0.890322
N 69.782236 -1.519149 0.343010
C 71.486033 -3.482216 0.744336
C 71.478677 -4.958891 0.822437
C 71.896329 -5.609778 1.982583
C 71.855035 -6.993178 2.008513
N 71.430522 -7.761461 0.977913
C 71.031140 -7.096546 -0.132008
C 71.034466 -5.717731 -0.257906
C 72.621618 -2.772921 0.515108
C 73.908634 -3.409006 0.321210
C 74.817218 -2.461171 0.117225
N 72.829835 -1.426817 0.403429
C 74.154985 -1.173808 0.170090
C 74.818698 -0.000716 -0.000476
C 74.021578 1.365762 0.068536
C 74.514579 2.589133 0.472129
C 73.476741 3.541159 0.302557
C 72.380669 2.866850 -0.192257
N 72.699074 1.533811 -0.258903
C 70.995486 3.503831 -0.612352
C 71.007247 4.897386 -1.105642
C 70.611313 5.946628 -0.278434
C 70.654262 7.233110 -0.786895
N 71.060232 7.543160 -2.040000
C 71.439116 6.500021 -2.815358
C 71.433050 5.179155 -2.401702
C 69.858807 2.762264 -0.556911
C 68.572642 3.280818 -0.975016
C 67.663376 2.326521 -0.808824
C 68.324502 1.151572 -0.278097
N 69.649103 1.473255 -0.153987
H 66.952371 -2.293834 1.772973
H 68.936678 -4.100954 2.153354
H 70.441128 -0.894253 -0.114423
H 72.246097 -5.037220 2.835254
H 72.172581 -7.536147 2.891934
H 70.693867 -7.722832 -0.951813
H 70.703440 -5.232621 -1.169338
H 74.105822 -4.466256 0.328570
H 75.862224 -2.639439 -0.059140
H 75.514265 2.781169 0.829771
H 73.529496 4.600747 0.502070
H 72.045060 0.784723 -0.466091
H 70.276509 5.748145 0.733829
H 70.352176 8.076851 -0.175430
H 71.761183 6.760375 -3.817821
H 71.747253 4.378106 -3.061858
H 68.376400 4.264644 -1.362713
H 66.618290 2.427279 -1.038083
C 86.773984 -0.000716 -0.000476
C 87.569765 -1.246215 0.570636
C 87.069370 -2.241573 1.383155
C 88.107572 -3.187417 1.583900
C 89.211056 -2.736713 0.890322
N 88.895830 -1.519149 0.343010
C 90.599627 -3.482216 0.744336
C 90.592271 -4.958891 0.822437
C 91.009923 -5.609778 1.982583
C 90.968628 -6.993178 2.008513
N 90.544116 -7.761461 0.977913
C 90.144734 -7.096546 -0.132008
C 90.148059 -5.717731 -0.257906
C 91.735212 -2.772921 0.515108
C 93.022228 -3.409006 0.321210
C 93.930812 -2.461171 0.117225
N 91.943429 -1.426817 0.403429
C 93.268579 -1.173808 0.170090
C 93.932291 -0.000716 -0.000476
C 93.135172 1.365762 0.068536
C 93.628172 2.589133 0.472129
C 92.590335 3.541159 0.302557
C 91.494263 2.866850 -0.192257
N 91.812668 1.533811 -0.258903
C 90.109079 3.503831 -0.612352
C 90.120840 4.897386 -1.105642
C 89.724907 5.946628 -0.278434
C 89.767856 7.233110 -0.786895
N 90.173826 7.543160 -2.040000
C 90.552710 6.500021 -2.815358
C 90.546644 5.179155 -2.401702
C 88.972401 2.762264 -0.556911
C 87.686235 3.280818 -0.975016
C 86.776970 2.326521 -0.808824
C 87.438096 1.151572 -0.278097
N 88.762697 1.473255 -0.153987
H 86.065965 -2.293834 1.772973
H 88.050272 -4.100954 2.153354
H 89.554722 -0.894253 -0.114423
H 91.359691 -5.037220 2.835254
H 91.286175 -7.536147 2.891934
H 89.807461 -7.722832 -0.951813
H 89.817034 -5.232621 -1.169338
H 93.219416 -4.466256 0.328570
H 94.975818 -2.639439 -0.059140
H 94.627859 2.781169 0.829771
H 92.643090 4.600747 0.502070
H 91.158653 0.784723 -0.466091
H 89.390102 5.748145 0.733829
H 89.465769 8.076851 -0.175430
H 90.874777 6.760375 -3.817821
H 90.860847 4.378106 -3.061858
H 87.489994 4.264644 -1.362713
H 85.731884 2.427279 -1.038083
C 105.887578 -0.000716 -0.000476
C 106.683359 -1.246215 0.570636
C 106.182964 -2.241573 1.383155
C 107.221165 -3.187417 1.583900
C 108.324649 -2.736713 0.890322
N 108.009423 -1.519149 0.343010
C 109.713221 -3.482216 0.744336
C 109.705865 -4.958891 0.822437
C 110.123516 -5.609778 1.982583
C 110.082222 -6.993178 2.008513
N 109.657709 -7.761461 0.977913
C 109.258327 -7.096546 -0.132008
C 109.261653 -5.717731 -0.257906
C 110.848806 -2.772921 0.515108
C 112.135822 -3.409006 0.321210
C 113.044406 -2.461171 0.117225
N 111.057022 -1.426817 0.403429
C 112.382173 -1.173808 0.170090
C 113.045885 -0.000716 -0.000476
C 112.248766 1.365762 0.068536
C 112.741766 2.589133 0.472129
C 111.703929 3.541159 0.302557
C 110.607857 2.866850 -0.192257
N 110.926262 1.533811 -0.258903
C 109.222673 3.503831 -0.612352
C 109.234434 4.897386 -1.105642
C 108.838501 5.946628 -0.278434
C 108.881450 7.233110 -0.786895
N 109.287420 7.543160 -2.040000
C 109.666304 6.500021 -2.815358
C 109.660238 5.179155 -2.401702
C 108.085995 2.762264 -0.556911
C 106.799829 3.280818 -0.975016
C 105.890564 2.326521 -0.808824
C 106.551690 1.151572 -0.278097
N 107.876291 1.473255 -0.153987
H 105.179558 -2.293834 1.772973
H 107.163866 -4.100954 2.153354
H 108.668316 -0.894253 -0.114423
H 110.473285 -5.037220 2.835254
H 110.399769 -7.536147 2.891934
H 108.921055 -7.722832 -0.951813
H 108.930628 -5.232621 -1.169338
H 112.333009 -4.466256 0.328570
H 114.089412 -2.639439 -0.059140
H 113.741453 2.781169 0.829771
H 111.756684 4.600747 0.502070
H 110.272247 0.784723 -0.466091
H 108.503696 5.748145 0.733829
H 108.579363 8.076851 -0.175430
H 109.988371 6.760375 -3.817821
H 109.974441 4.378106 -3.061858
H 106.603588 4.264644 -1.362713
H 104.845478 2.427279 -1.038083
C 125.001172 -0.000716 -0.000476
C 125.796952 -1.246215 0.570636
C 125.296558 -2.241573 1.383155
C 126.334759 -3.187417 1.583900
C 127.438243 -2.736713 0.890322
N 127.123017 -1.519149 0.343010
C 128.826814 -3.482216 0.744336
C 128.819458 -4.958891 0.822437
C 129.237110 -5.609778 1.982583
C 129.195816 -6.993178 2.008513
N 128.771303 -7.761461 0.977913
C 128.371921 -7.096546 -0.132008
C 128.375247 -5.717731 -0.257906
C 129.962400 -2.772921 0.515108
C 131.249416 -3.409006 0.321210
C 132.157999 -2.461171 0.117225
N 130.170616 -1.426817 0.403429
C 131.495767 -1.173808 0.170090
C 132.159479 -0.000716 -0.000476
C 131.362359 1.365762 0.068536
C 131.855360 2.589133 0.472129
C 130.817523 3.541159 0.302557
C 129.721450 2.866850 -0.192257
N 130.039856 1.533811 -0.258903
C 128.336267 3.503831 -0.612352
C 128.348028 4.897386 -1.105642
C 127.952095 5.946628 -0.278434
C 127.995043 7.233110 -0.786895
N 128.401014 7.543160 -2.040000
C 128.779897 6.500021 -2.815358
C 128.773832 5.179155 -2.401702
C 127.199589 2.762264 -0.556911
C 125.913423 3.280818 -0.975016
C 125.004157 2.326521 -0.808824
C 125.665284 1.151572 -0.278097
N 126.989884 1.473255 -0.153987
H 124.293152 -2.293834 1.772973
H 126.277459 -4.100954 2.153354
H 127.781910 -0.894253 -0.114423
H 129.586878 -5.037220 2.835254
H 129.513362 -7.536147 2.891934
H 128.034649 -7.722832 -0.951813
H 128.044222 -5.232621 -1.169338
H 131.446603 -4.466256 0.328570
H 133.203005 -2.639439 -0.059140
H 132.855047 2.781169 0.829771
H 130.870278 4.600747 0.502070
H 129.385841 0.784723 -0.466091
H 127.617290 5.748145 0.733829
H 127.692957 8.076851 -0.175430
H 129.101964 6.760375 -3.817821
H 129.088034 4.378106 -3.061858
H 125.717182 4.264644 -1.362713
H 123.959072 2.427279 -1.038083
