 xtb: 6.5.1 (b24c23e)
          07302216403D

408449  0     0  0            999 V2000
   95.1452    0.2589   -0.0999 C   0  0  0  0  0  0  0  0  0  0  0  0
   95.7603    0.4491   -1.3309 C   0  0  0  0  0  0  0  0  0  0  0  0
   95.1152    0.6062   -2.5889 C   0  0  0  0  0  0  0  0  0  0  0  0
   96.0835    0.7435   -3.5441 C   0  0  0  0  0  0  0  0  0  0  0  0
   97.3511    0.6875   -2.8985 C   0  0  0  0  0  0  0  0  0  0  0  0
   97.1050    0.5023   -1.5671 N   0  0  0  0  0  0  0  0  0  0  0  0
   98.6178    0.7852   -3.4872 C   0  0  0  0  0  0  0  0  0  0  0  0
   98.6575    1.0214   -4.9489 C   0  0  0  0  0  0  0  0  0  0  0  0
   99.3064    0.1205   -5.7957 C   0  0  0  0  0  0  0  0  0  0  0  0
   99.3378    0.3194   -7.1653 C   0  0  0  0  0  0  0  0  0  0  0  0
   98.7161    1.4387   -7.7261 C   0  0  0  0  0  0  0  0  0  0  0  0
   98.7618    1.7153   -9.0850 N   0  0  0  0  0  0  0  0  0  0  0  0
   98.9540    0.6273  -10.0345 C   0  0  0  0  0  0  0  0  0  0  0  0
   98.0783    2.3541   -6.8801 C   0  0  0  0  0  0  0  0  0  0  0  0
   98.0450    2.1433   -5.5145 C   0  0  0  0  0  0  0  0  0  0  0  0
   99.8302    0.6738   -2.8002 C   0  0  0  0  0  0  0  0  0  0  0  0
  101.1258    0.8963   -3.4150 C   0  0  0  0  0  0  0  0  0  0  0  0
  102.0459    0.7088   -2.4461 C   0  0  0  0  0  0  0  0  0  0  0  0
   99.9855    0.3756   -1.4804 N   0  0  0  0  0  0  0  0  0  0  0  0
  101.3136    0.3729   -1.2417 C   0  0  0  0  0  0  0  0  0  0  0  0
  101.9503    0.0989   -0.0135 C   0  0  0  0  0  0  0  0  0  0  0  0
  101.3044   -0.1553    1.2125 C   0  0  0  0  0  0  0  0  0  0  0  0
  101.9365   -0.4112    2.4566 C   0  0  0  0  0  0  0  0  0  0  0  0
  100.9630   -0.5565    3.4062 C   0  0  0  0  0  0  0  0  0  0  0  0
   99.7019   -0.4094    2.7669 C   0  0  0  0  0  0  0  0  0  0  0  0
   99.9600   -0.1701    1.4423 N   0  0  0  0  0  0  0  0  0  0  0  0
   98.4386   -0.4536    3.3691 C   0  0  0  0  0  0  0  0  0  0  0  0
   98.4008   -0.7159    4.8268 C   0  0  0  0  0  0  0  0  0  0  0  0
   97.8341    0.2132    5.7013 C   0  0  0  0  0  0  0  0  0  0  0  0
   97.7999   -0.0153    7.0663 C   0  0  0  0  0  0  0  0  0  0  0  0
   98.3359   -1.1934    7.5943 C   0  0  0  0  0  0  0  0  0  0  0  0
   98.2795   -1.4990    8.9463 N   0  0  0  0  0  0  0  0  0  0  0  0
   98.1745   -0.4244    9.9242 C   0  0  0  0  0  0  0  0  0  0  0  0
   98.8924   -2.1351    6.7201 C   0  0  0  0  0  0  0  0  0  0  0  0
   98.9289   -1.8953    5.3594 C   0  0  0  0  0  0  0  0  0  0  0  0
   97.2255   -0.2691    2.6968 C   0  0  0  0  0  0  0  0  0  0  0  0
   95.9186   -0.3900    3.3239 C   0  0  0  0  0  0  0  0  0  0  0  0
   95.0069   -0.1869    2.3514 C   0  0  0  0  0  0  0  0  0  0  0  0
   95.7552    0.0484    1.1297 C   0  0  0  0  0  0  0  0  0  0  0  0
   97.0873   -0.0073    1.3753 N   0  0  0  0  0  0  0  0  0  0  0  0
   94.0599    0.2579   -0.1133 H   0  0  0  0  0  0  0  0  0  0  0  0
   94.0465    0.6028   -2.7332 H   0  0  0  0  0  0  0  0  0  0  0  0
   95.9365    0.8603   -4.6056 H   0  0  0  0  0  0  0  0  0  0  0  0
   97.8254    0.4011   -0.8600 H   0  0  0  0  0  0  0  0  0  0  0  0
   99.7763   -0.7615   -5.3742 H   0  0  0  0  0  0  0  0  0  0  0  0
   99.8477   -0.4012   -7.7928 H   0  0  0  0  0  0  0  0  0  0  0  0
   98.0346    2.3572   -9.3772 H   0  0  0  0  0  0  0  0  0  0  0  0
   98.2387   -0.1860   -9.8661 H   0  0  0  0  0  0  0  0  0  0  0  0
   98.8143    1.0279  -11.0385 H   0  0  0  0  0  0  0  0  0  0  0  0
   99.9686    0.2351   -9.9535 H   0  0  0  0  0  0  0  0  0  0  0  0
   97.6085    3.2351   -7.3047 H   0  0  0  0  0  0  0  0  0  0  0  0
   97.5573    2.8680   -4.8716 H   0  0  0  0  0  0  0  0  0  0  0  0
  101.2876    1.1831   -4.4414 H   0  0  0  0  0  0  0  0  0  0  0  0
  103.1174    0.8029   -2.5135 H   0  0  0  0  0  0  0  0  0  0  0  0
  103.0023   -0.4727    2.6020 H   0  0  0  0  0  0  0  0  0  0  0  0
  101.1058   -0.7379    4.4589 H   0  0  0  0  0  0  0  0  0  0  0  0
   99.2445   -0.0124    0.7402 H   0  0  0  0  0  0  0  0  0  0  0  0
   97.4318    1.1397    5.3061 H   0  0  0  0  0  0  0  0  0  0  0  0
   97.3545    0.7282    7.7159 H   0  0  0  0  0  0  0  0  0  0  0  0
   98.9566   -2.2019    9.2170 H   0  0  0  0  0  0  0  0  0  0  0  0
   97.1925    0.0458    9.8590 H   0  0  0  0  0  0  0  0  0  0  0  0
   98.9492    0.3362    9.7727 H   0  0  0  0  0  0  0  0  0  0  0  0
   98.2870   -0.8603   10.9169 H   0  0  0  0  0  0  0  0  0  0  0  0
   99.2956   -3.0601    7.1190 H   0  0  0  0  0  0  0  0  0  0  0  0
   99.3523   -2.6401    4.6943 H   0  0  0  0  0  0  0  0  0  0  0  0
   95.7457   -0.6196    4.3631 H   0  0  0  0  0  0  0  0  0  0  0  0
   93.9303   -0.2003    2.4209 H   0  0  0  0  0  0  0  0  0  0  0  0
  156.6009    0.1482   -0.2593 C   0  0  0  0  0  0  0  0  0  0  0  0
  156.0218    0.4110    0.9758 C   0  0  0  0  0  0  0  0  0  0  0  0
  156.7019    0.6209    2.2074 C   0  0  0  0  0  0  0  0  0  0  0  0
  155.7614    0.8329    3.1767 C   0  0  0  0  0  0  0  0  0  0  0  0
  154.4770    0.7709    2.5659 C   0  0  0  0  0  0  0  0  0  0  0  0
  154.6850    0.5065    1.2416 N   0  0  0  0  0  0  0  0  0  0  0  0
  153.2278    0.9333    3.1775 C   0  0  0  0  0  0  0  0  0  0  0  0
  153.2293    1.2601    4.6219 C   0  0  0  0  0  0  0  0  0  0  0  0
  152.5772    0.4319    5.5378 C   0  0  0  0  0  0  0  0  0  0  0  0
  152.5850    0.7152    6.8926 C   0  0  0  0  0  0  0  0  0  0  0  0
  153.2508    1.8484    7.3688 C   0  0  0  0  0  0  0  0  0  0  0  0
  153.2478    2.2078    8.7088 N   0  0  0  0  0  0  0  0  0  0  0  0
  153.0499    1.1847    9.7270 C   0  0  0  0  0  0  0  0  0  0  0  0
  153.8913    2.6921    6.4530 C   0  0  0  0  0  0  0  0  0  0  0  0
  153.8851    2.3971    5.1027 C   0  0  0  0  0  0  0  0  0  0  0  0
  151.9969    0.8047    2.5274 C   0  0  0  0  0  0  0  0  0  0  0  0
  150.7216    1.0928    3.1567 C   0  0  0  0  0  0  0  0  0  0  0  0
  149.7739    0.8532    2.2267 C   0  0  0  0  0  0  0  0  0  0  0  0
  151.8029    0.4205    1.2350 N   0  0  0  0  0  0  0  0  0  0  0  0
  150.4691    0.4212    1.0311 C   0  0  0  0  0  0  0  0  0  0  0  0
  149.7958    0.0674   -0.1568 C   0  0  0  0  0  0  0  0  0  0  0  0
  150.4050   -0.2625   -1.3834 C   0  0  0  0  0  0  0  0  0  0  0  0
  149.7365   -0.5863   -2.5924 C   0  0  0  0  0  0  0  0  0  0  0  0
  150.6817   -0.7825   -3.5613 C   0  0  0  0  0  0  0  0  0  0  0  0
  151.9611   -0.6018   -2.9684 C   0  0  0  0  0  0  0  0  0  0  0  0
  151.7419   -0.2916   -1.6514 N   0  0  0  0  0  0  0  0  0  0  0  0
  153.2065   -0.6790   -3.6030 C   0  0  0  0  0  0  0  0  0  0  0  0
  153.2035   -1.0037   -5.0489 C   0  0  0  0  0  0  0  0  0  0  0  0
  153.7411   -0.1092   -5.9763 C   0  0  0  0  0  0  0  0  0  0  0  0
  153.7375   -0.3932   -7.3312 C   0  0  0  0  0  0  0  0  0  0  0  0
  153.1929   -1.5941   -7.7949 C   0  0  0  0  0  0  0  0  0  0  0  0
  153.2127   -1.9540   -9.1347 N   0  0  0  0  0  0  0  0  0  0  0  0
  153.2739   -0.9178  -10.1570 C   0  0  0  0  0  0  0  0  0  0  0  0
  152.6665   -2.5015   -6.8675 C   0  0  0  0  0  0  0  0  0  0  0  0
  152.6668   -2.2060   -5.5171 C   0  0  0  0  0  0  0  0  0  0  0  0
  154.4389   -0.4732   -2.9735 C   0  0  0  0  0  0  0  0  0  0  0  0
  155.7266   -0.6360   -3.6301 C   0  0  0  0  0  0  0  0  0  0  0  0
  156.6670   -0.4052   -2.6916 C   0  0  0  0  0  0  0  0  0  0  0  0
  155.9553   -0.1077   -1.4617 C   0  0  0  0  0  0  0  0  0  0  0  0
  154.6162   -0.1561   -1.6689 N   0  0  0  0  0  0  0  0  0  0  0  0
  157.6861    0.1276   -0.2735 H   0  0  0  0  0  0  0  0  0  0  0  0
  157.7736    0.6009    2.3257 H   0  0  0  0  0  0  0  0  0  0  0  0
  155.9377    1.0041    4.2263 H   0  0  0  0  0  0  0  0  0  0  0  0
  153.9445    0.3821    0.5593 H   0  0  0  0  0  0  0  0  0  0  0  0
  152.0735   -0.4607    5.1829 H   0  0  0  0  0  0  0  0  0  0  0  0
  152.0711    0.0494    7.5751 H   0  0  0  0  0  0  0  0  0  0  0  0
  154.0004    2.8438    8.9438 H   0  0  0  0  0  0  0  0  0  0  0  0
  153.7380    0.3424    9.5910 H   0  0  0  0  0  0  0  0  0  0  0  0
  153.2264    1.6405   10.7012 H   0  0  0  0  0  0  0  0  0  0  0  0
  152.0231    0.8182    9.6941 H   0  0  0  0  0  0  0  0  0  0  0  0
  154.3946    3.5840    6.8112 H   0  0  0  0  0  0  0  0  0  0  0  0
  154.3757    3.0672    4.4050 H   0  0  0  0  0  0  0  0  0  0  0  0
  150.5908    1.4545    4.1637 H   0  0  0  0  0  0  0  0  0  0  0  0
  148.7066    0.9726    2.3132 H   0  0  0  0  0  0  0  0  0  0  0  0
  148.6669   -0.6545   -2.7027 H   0  0  0  0  0  0  0  0  0  0  0  0
  150.5083   -1.0211   -4.5979 H   0  0  0  0  0  0  0  0  0  0  0  0
  152.4776   -0.0969   -0.9802 H   0  0  0  0  0  0  0  0  0  0  0  0
  154.1505    0.8338   -5.6304 H   0  0  0  0  0  0  0  0  0  0  0  0
  154.1607    0.3246   -8.0232 H   0  0  0  0  0  0  0  0  0  0  0  0
  152.5343   -2.6731   -9.3559 H   0  0  0  0  0  0  0  0  0  0  0  0
  154.2526   -0.4364  -10.1435 H   0  0  0  0  0  0  0  0  0  0  0  0
  152.4969   -0.1591  -10.0092 H   0  0  0  0  0  0  0  0  0  0  0  0
  153.1329   -1.3935  -11.1276 H   0  0  0  0  0  0  0  0  0  0  0  0
  152.2574   -3.4438   -7.2166 H   0  0  0  0  0  0  0  0  0  0  0  0
  152.2659   -2.9244   -4.8104 H   0  0  0  0  0  0  0  0  0  0  0  0
  155.8678   -0.9103   -4.6633 H   0  0  0  0  0  0  0  0  0  0  0  0
  157.7411   -0.4356   -2.7893 H   0  0  0  0  0  0  0  0  0  0  0  0
  103.3595    0.0897    0.0056 C   0  0  0  0  0  0  0  0  0  0  0  0
  104.5776    0.0781    0.0169 C   0  0  0  0  0  0  0  0  0  0  0  0
  114.3067   -0.0216    0.0768 C   0  0  0  0  0  0  0  0  0  0  0  0
  115.5263   -0.0261    0.0756 C   0  0  0  0  0  0  0  0  0  0  0  0
  125.2729   -0.0398    0.1078 C   0  0  0  0  0  0  0  0  0  0  0  0
  126.4925   -0.0254    0.1099 C   0  0  0  0  0  0  0  0  0  0  0  0
  136.2298    0.0326    0.1256 C   0  0  0  0  0  0  0  0  0  0  0  0
  137.4490    0.0154    0.1106 C   0  0  0  0  0  0  0  0  0  0  0  0
  147.1692    0.0248   -0.1055 C   0  0  0  0  0  0  0  0  0  0  0  0
  148.3869    0.0520   -0.1328 C   0  0  0  0  0  0  0  0  0  0  0  0
  105.9857    0.0732    0.0261 C   0  0  0  0  0  0  0  0  0  0  0  0
  106.6133    0.2008    1.2808 C   0  0  0  0  0  0  0  0  0  0  0  0
  105.9718    0.3361    2.5376 C   0  0  0  0  0  0  0  0  0  0  0  0
  106.9382    0.3488    3.5064 C   0  0  0  0  0  0  0  0  0  0  0  0
  108.2018    0.2368    2.8666 C   0  0  0  0  0  0  0  0  0  0  0  0
  107.9551    0.1593    1.5216 N   0  0  0  0  0  0  0  0  0  0  0  0
  109.4544    0.1481    3.4875 C   0  0  0  0  0  0  0  0  0  0  0  0
  109.4541    0.2064    4.9708 C   0  0  0  0  0  0  0  0  0  0  0  0
  109.8988   -0.8795    5.7289 C   0  0  0  0  0  0  0  0  0  0  0  0
  109.8876   -0.8284    7.1103 C   0  0  0  0  0  0  0  0  0  0  0  0
  109.4347    0.3167    7.7763 C   0  0  0  0  0  0  0  0  0  0  0  0
  109.4942    0.3429    9.1632 N   0  0  0  0  0  0  0  0  0  0  0  0
  108.6051    1.2304    9.9015 C   0  0  0  0  0  0  0  0  0  0  0  0
  109.0036    1.4114    7.0221 C   0  0  0  0  0  0  0  0  0  0  0  0
  109.0077    1.3474    5.6388 C   0  0  0  0  0  0  0  0  0  0  0  0
  110.6815    0.0141    2.8361 C   0  0  0  0  0  0  0  0  0  0  0  0
  111.9539   -0.0478    3.5308 C   0  0  0  0  0  0  0  0  0  0  0  0
  112.9065   -0.1063    2.5775 C   0  0  0  0  0  0  0  0  0  0  0  0
  110.8848   -0.0072    1.4886 N   0  0  0  0  0  0  0  0  0  0  0  0
  112.2203   -0.0641    1.3038 C   0  0  0  0  0  0  0  0  0  0  0  0
  112.8992   -0.0263    0.0673 C   0  0  0  0  0  0  0  0  0  0  0  0
  112.2710    0.0263   -1.1943 C   0  0  0  0  0  0  0  0  0  0  0  0
  112.9073    0.1585   -2.4534 C   0  0  0  0  0  0  0  0  0  0  0  0
  111.9393    0.1392   -3.4210 C   0  0  0  0  0  0  0  0  0  0  0  0
  110.6811   -0.0105   -2.7792 C   0  0  0  0  0  0  0  0  0  0  0  0
  110.9306   -0.0551   -1.4330 N   0  0  0  0  0  0  0  0  0  0  0  0
  109.4258   -0.1029   -3.3965 C   0  0  0  0  0  0  0  0  0  0  0  0
  109.4205   -0.1508   -4.8767 C   0  0  0  0  0  0  0  0  0  0  0  0
  108.7134    0.7982   -5.6182 C   0  0  0  0  0  0  0  0  0  0  0  0
  108.6997    0.7614   -7.0017 C   0  0  0  0  0  0  0  0  0  0  0  0
  109.3851   -0.2480   -7.6839 C   0  0  0  0  0  0  0  0  0  0  0  0
  109.4376   -0.3092   -9.0690 N   0  0  0  0  0  0  0  0  0  0  0  0
  108.3682    0.2922   -9.8550 C   0  0  0  0  0  0  0  0  0  0  0  0
  110.1014   -1.1983   -6.9459 C   0  0  0  0  0  0  0  0  0  0  0  0
  110.1209   -1.1459   -5.5651 C   0  0  0  0  0  0  0  0  0  0  0  0
  108.1959   -0.1521   -2.7359 C   0  0  0  0  0  0  0  0  0  0  0  0
  106.9282   -0.3653   -3.4100 C   0  0  0  0  0  0  0  0  0  0  0  0
  105.9741   -0.3129   -2.4569 C   0  0  0  0  0  0  0  0  0  0  0  0
  106.6590   -0.0732   -1.2039 C   0  0  0  0  0  0  0  0  0  0  0  0
  107.9928   -0.0060   -1.3975 N   0  0  0  0  0  0  0  0  0  0  0  0
  104.9063    0.4106    2.6785 H   0  0  0  0  0  0  0  0  0  0  0  0
  106.7876    0.4184    4.5713 H   0  0  0  0  0  0  0  0  0  0  0  0
  108.6699    0.0686    0.8074 H   0  0  0  0  0  0  0  0  0  0  0  0
  110.2363   -1.7795    5.2268 H   0  0  0  0  0  0  0  0  0  0  0  0
  110.2293   -1.6813    7.6875 H   0  0  0  0  0  0  0  0  0  0  0  0
  109.5299   -0.5854    9.5673 H   0  0  0  0  0  0  0  0  0  0  0  0
  107.5599    1.0962    9.5997 H   0  0  0  0  0  0  0  0  0  0  0  0
  108.7062    1.0018   10.9625 H   0  0  0  0  0  0  0  0  0  0  0  0
  108.8947    2.2694    9.7396 H   0  0  0  0  0  0  0  0  0  0  0  0
  108.6669    2.3188    7.5084 H   0  0  0  0  0  0  0  0  0  0  0  0
  108.6789    2.2070    5.0647 H   0  0  0  0  0  0  0  0  0  0  0  0
  112.0830   -0.0327    4.6008 H   0  0  0  0  0  0  0  0  0  0  0  0
  113.9744   -0.1690    2.7026 H   0  0  0  0  0  0  0  0  0  0  0  0
  113.9690    0.2705   -2.5967 H   0  0  0  0  0  0  0  0  0  0  0  0
  112.0838    0.2381   -4.4844 H   0  0  0  0  0  0  0  0  0  0  0  0
  110.2176   -0.1295   -0.7152 H   0  0  0  0  0  0  0  0  0  0  0  0
  108.1841    1.5909   -5.1008 H   0  0  0  0  0  0  0  0  0  0  0  0
  108.1553    1.5234   -7.5458 H   0  0  0  0  0  0  0  0  0  0  0  0
  109.6936   -1.2286   -9.4088 H   0  0  0  0  0  0  0  0  0  0  0  0
  108.4137    1.3793   -9.7782 H   0  0  0  0  0  0  0  0  0  0  0  0
  108.5165    0.0098  -10.8973 H   0  0  0  0  0  0  0  0  0  0  0  0
  107.3819   -0.0517   -9.5230 H   0  0  0  0  0  0  0  0  0  0  0  0
  110.6404   -1.9828   -7.4668 H   0  0  0  0  0  0  0  0  0  0  0  0
  110.6629   -1.9017   -5.0071 H   0  0  0  0  0  0  0  0  0  0  0  0
  106.8063   -0.5539   -4.4644 H   0  0  0  0  0  0  0  0  0  0  0  0
  104.9098   -0.4427   -2.5661 H   0  0  0  0  0  0  0  0  0  0  0  0
  116.9336   -0.0210    0.0805 C   0  0  0  0  0  0  0  0  0  0  0  0
  117.5692    0.1239    1.3306 C   0  0  0  0  0  0  0  0  0  0  0  0
  116.9372    0.2635    2.5911 C   0  0  0  0  0  0  0  0  0  0  0  0
  117.9099    0.2862    3.5529 C   0  0  0  0  0  0  0  0  0  0  0  0
  119.1692    0.1757    2.9048 C   0  0  0  0  0  0  0  0  0  0  0  0
  118.9131    0.0903    1.5618 N   0  0  0  0  0  0  0  0  0  0  0  0
  120.4241    0.0928    3.5219 C   0  0  0  0  0  0  0  0  0  0  0  0
  120.4257    0.1530    5.0053 C   0  0  0  0  0  0  0  0  0  0  0  0
  120.8651   -0.9352    5.7634 C   0  0  0  0  0  0  0  0  0  0  0  0
  120.8512   -0.8851    7.1447 C   0  0  0  0  0  0  0  0  0  0  0  0
  120.4010    0.2612    7.8106 C   0  0  0  0  0  0  0  0  0  0  0  0
  120.4551    0.2845    9.1977 N   0  0  0  0  0  0  0  0  0  0  0  0
  119.5705    1.1784    9.9337 C   0  0  0  0  0  0  0  0  0  0  0  0
  119.9775    1.3589    7.0565 C   0  0  0  0  0  0  0  0  0  0  0  0
  119.9840    1.2958    5.6731 C   0  0  0  0  0  0  0  0  0  0  0  0
  121.6509   -0.0388    2.8702 C   0  0  0  0  0  0  0  0  0  0  0  0
  122.9237   -0.0969    3.5646 C   0  0  0  0  0  0  0  0  0  0  0  0
  123.8763   -0.1494    2.6109 C   0  0  0  0  0  0  0  0  0  0  0  0
  121.8537   -0.0580    1.5228 N   0  0  0  0  0  0  0  0  0  0  0  0
  123.1893   -0.1077    1.3377 C   0  0  0  0  0  0  0  0  0  0  0  0
  123.8659   -0.0622    0.1002 C   0  0  0  0  0  0  0  0  0  0  0  0
  123.2319   -0.0175   -1.1588 C   0  0  0  0  0  0  0  0  0  0  0  0
  123.8594    0.1195   -2.4215 C   0  0  0  0  0  0  0  0  0  0  0  0
  122.8856    0.0884   -3.3833 C   0  0  0  0  0  0  0  0  0  0  0  0
  121.6328   -0.0738   -2.7338 C   0  0  0  0  0  0  0  0  0  0  0  0
  121.8909   -0.1139   -1.3893 N   0  0  0  0  0  0  0  0  0  0  0  0
  120.3753   -0.1806   -3.3447 C   0  0  0  0  0  0  0  0  0  0  0  0
  120.3668   -0.2264   -4.8253 C   0  0  0  0  0  0  0  0  0  0  0  0
  119.6553    0.7220   -5.5632 C   0  0  0  0  0  0  0  0  0  0  0  0
  119.6458    0.6934   -6.9471 C   0  0  0  0  0  0  0  0  0  0  0  0
  120.3400   -0.3073   -7.6332 C   0  0  0  0  0  0  0  0  0  0  0  0
  120.4008   -0.3576   -9.0182 N   0  0  0  0  0  0  0  0  0  0  0  0
  119.3376    0.2503   -9.8073 C   0  0  0  0  0  0  0  0  0  0  0  0
  121.0578   -1.2591   -6.8986 C   0  0  0  0  0  0  0  0  0  0  0  0
  121.0733   -1.2145   -5.5175 C   0  0  0  0  0  0  0  0  0  0  0  0
  119.1475   -0.2423   -2.6815 C   0  0  0  0  0  0  0  0  0  0  0  0
  117.8825   -0.4716   -3.3546 C   0  0  0  0  0  0  0  0  0  0  0  0
  116.9283   -0.4267   -2.4009 C   0  0  0  0  0  0  0  0  0  0  0  0
  117.6094   -0.1741   -1.1491 C   0  0  0  0  0  0  0  0  0  0  0  0
  118.9421   -0.0936   -1.3431 N   0  0  0  0  0  0  0  0  0  0  0  0
  115.8733    0.3324    2.7408 H   0  0  0  0  0  0  0  0  0  0  0  0
  117.7662    0.3609    4.6183 H   0  0  0  0  0  0  0  0  0  0  0  0
  119.6223   -0.0019    0.8421 H   0  0  0  0  0  0  0  0  0  0  0  0
  121.1998   -1.8361    5.2609 H   0  0  0  0  0  0  0  0  0  0  0  0
  121.1877   -1.7400    7.7219 H   0  0  0  0  0  0  0  0  0  0  0  0
  120.4799   -0.6450    9.6000 H   0  0  0  0  0  0  0  0  0  0  0  0
  118.5256    1.0545    9.6266 H   0  0  0  0  0  0  0  0  0  0  0  0
  119.6643    0.9466   10.9947 H   0  0  0  0  0  0  0  0  0  0  0  0
  119.8704    2.2150    9.7755 H   0  0  0  0  0  0  0  0  0  0  0  0
  119.6441    2.2674    7.5427 H   0  0  0  0  0  0  0  0  0  0  0  0
  119.6598    2.1571    5.0989 H   0  0  0  0  0  0  0  0  0  0  0  0
  123.0529   -0.0841    4.6346 H   0  0  0  0  0  0  0  0  0  0  0  0
  124.9444   -0.2087    2.7354 H   0  0  0  0  0  0  0  0  0  0  0  0
  124.9190    0.2420   -2.5713 H   0  0  0  0  0  0  0  0  0  0  0  0
  123.0228    0.1870   -4.4476 H   0  0  0  0  0  0  0  0  0  0  0  0
  121.1843   -0.1945   -0.6659 H   0  0  0  0  0  0  0  0  0  0  0  0
  119.1197    1.5085   -5.0427 H   0  0  0  0  0  0  0  0  0  0  0  0
  119.0985    1.4555   -7.4881 H   0  0  0  0  0  0  0  0  0  0  0  0
  120.6619   -1.2730   -9.3645 H   0  0  0  0  0  0  0  0  0  0  0  0
  119.3823    1.3367   -9.7208 H   0  0  0  0  0  0  0  0  0  0  0  0
  119.4942   -0.0231  -10.8508 H   0  0  0  0  0  0  0  0  0  0  0  0
  118.3487   -0.0965   -9.4862 H   0  0  0  0  0  0  0  0  0  0  0  0
  121.6025   -2.0375   -7.4226 H   0  0  0  0  0  0  0  0  0  0  0  0
  121.6184   -1.9702   -4.9622 H   0  0  0  0  0  0  0  0  0  0  0  0
  117.7622   -0.6645   -4.4084 H   0  0  0  0  0  0  0  0  0  0  0  0
  115.8657   -0.5686   -2.5095 H   0  0  0  0  0  0  0  0  0  0  0  0
  127.8995    0.0007    0.1144 C   0  0  0  0  0  0  0  0  0  0  0  0
  128.5337    0.1503    1.3647 C   0  0  0  0  0  0  0  0  0  0  0  0
  127.8992    0.2724    2.6259 C   0  0  0  0  0  0  0  0  0  0  0  0
  128.8709    0.3034    3.5884 C   0  0  0  0  0  0  0  0  0  0  0  0
  130.1321    0.2168    2.9405 C   0  0  0  0  0  0  0  0  0  0  0  0
  129.8780    0.1364    1.5966 N   0  0  0  0  0  0  0  0  0  0  0  0
  131.3884    0.1498    3.5570 C   0  0  0  0  0  0  0  0  0  0  0  0
  131.3917    0.1959    5.0406 C   0  0  0  0  0  0  0  0  0  0  0  0
  131.8616   -0.8891    5.7852 C   0  0  0  0  0  0  0  0  0  0  0  0
  131.8515   -0.8552    7.1669 C   0  0  0  0  0  0  0  0  0  0  0  0
  131.3743    0.2714    7.8475 C   0  0  0  0  0  0  0  0  0  0  0  0
  131.4346    0.2807    9.2343 N   0  0  0  0  0  0  0  0  0  0  0  0
  130.5323    1.1427    9.9864 C   0  0  0  0  0  0  0  0  0  0  0  0
  130.9192    1.3659    7.1072 C   0  0  0  0  0  0  0  0  0  0  0  0
  130.9225    1.3190    5.7231 C   0  0  0  0  0  0  0  0  0  0  0  0
  132.6162    0.0398    2.9024 C   0  0  0  0  0  0  0  0  0  0  0  0
  133.8920    0.0026    3.5932 C   0  0  0  0  0  0  0  0  0  0  0  0
  134.8425   -0.0419    2.6369 C   0  0  0  0  0  0  0  0  0  0  0  0
  132.8152    0.0202    1.5547 N   0  0  0  0  0  0  0  0  0  0  0  0
  134.1508   -0.0156    1.3657 C   0  0  0  0  0  0  0  0  0  0  0  0
  134.8227    0.0293    0.1263 C   0  0  0  0  0  0  0  0  0  0  0  0
  134.1866    0.0851   -1.1315 C   0  0  0  0  0  0  0  0  0  0  0  0
  134.8128    0.2477   -2.3919 C   0  0  0  0  0  0  0  0  0  0  0  0
  133.8396    0.2178   -3.3544 C   0  0  0  0  0  0  0  0  0  0  0  0
  132.5893    0.0296   -2.7078 C   0  0  0  0  0  0  0  0  0  0  0  0
  132.8470   -0.0222   -1.3635 N   0  0  0  0  0  0  0  0  0  0  0  0
  131.3339   -0.0961   -3.3200 C   0  0  0  0  0  0  0  0  0  0  0  0
  131.3272   -0.1442   -4.8000 C   0  0  0  0  0  0  0  0  0  0  0  0
  130.5872    0.7789   -5.5422 C   0  0  0  0  0  0  0  0  0  0  0  0
  130.5785    0.7437   -6.9259 C   0  0  0  0  0  0  0  0  0  0  0  0
  131.3035   -0.2379   -7.6080 C   0  0  0  0  0  0  0  0  0  0  0  0
  131.3652   -0.2929   -8.9928 N   0  0  0  0  0  0  0  0  0  0  0  0
  130.2777    0.2678   -9.7837 C   0  0  0  0  0  0  0  0  0  0  0  0
  132.0511   -1.1632   -6.8693 C   0  0  0  0  0  0  0  0  0  0  0  0
  132.0644   -1.1126   -5.4885 C   0  0  0  0  0  0  0  0  0  0  0  0
  130.1087   -0.1808   -2.6548 C   0  0  0  0  0  0  0  0  0  0  0  0
  128.8459   -0.4323   -3.3237 C   0  0  0  0  0  0  0  0  0  0  0  0
  127.8941   -0.4034   -2.3670 C   0  0  0  0  0  0  0  0  0  0  0  0
  128.5747   -0.1394   -1.1173 C   0  0  0  0  0  0  0  0  0  0  0  0
  129.9050   -0.0362   -1.3154 N   0  0  0  0  0  0  0  0  0  0  0  0
  126.8344    0.3240    2.7754 H   0  0  0  0  0  0  0  0  0  0  0  0
  128.7252    0.3682    4.6542 H   0  0  0  0  0  0  0  0  0  0  0  0
  130.5896    0.0579    0.8777 H   0  0  0  0  0  0  0  0  0  0  0  0
  132.2175   -1.7754    5.2715 H   0  0  0  0  0  0  0  0  0  0  0  0
  132.2122   -1.7076    7.7331 H   0  0  0  0  0  0  0  0  0  0  0  0
  131.4890   -0.6518    9.6267 H   0  0  0  0  0  0  0  0  0  0  0  0
  129.4884    0.9920    9.6880 H   0  0  0  0  0  0  0  0  0  0  0  0
  130.6428    0.9042   11.0443 H   0  0  0  0  0  0  0  0  0  0  0  0
  130.8014    2.1887    9.8349 H   0  0  0  0  0  0  0  0  0  0  0  0
  130.5636    2.2597    7.6051 H   0  0  0  0  0  0  0  0  0  0  0  0
  130.5745    2.1785    5.1603 H   0  0  0  0  0  0  0  0  0  0  0  0
  134.0242    0.0242    4.6627 H   0  0  0  0  0  0  0  0  0  0  0  0
  135.9122   -0.0817    2.7581 H   0  0  0  0  0  0  0  0  0  0  0  0
  135.8704    0.3889   -2.5393 H   0  0  0  0  0  0  0  0  0  0  0  0
  133.9757    0.3348   -4.4171 H   0  0  0  0  0  0  0  0  0  0  0  0
  132.1406   -0.1214   -0.6423 H   0  0  0  0  0  0  0  0  0  0  0  0
  130.0284    1.5515   -5.0254 H   0  0  0  0  0  0  0  0  0  0  0  0
  130.0080    1.4860   -7.4705 H   0  0  0  0  0  0  0  0  0  0  0  0
  131.6607   -1.1998   -9.3341 H   0  0  0  0  0  0  0  0  0  0  0  0
  130.2772    1.3554   -9.7010 H   0  0  0  0  0  0  0  0  0  0  0  0
  130.4454   -0.0025  -10.8263 H   0  0  0  0  0  0  0  0  0  0  0  0
  129.3041   -0.1188   -9.4612 H   0  0  0  0  0  0  0  0  0  0  0  0
  132.6203   -1.9263   -7.3898 H   0  0  0  0  0  0  0  0  0  0  0  0
  132.6320   -1.8492   -4.9302 H   0  0  0  0  0  0  0  0  0  0  0  0
  128.7256   -0.6287   -4.3768 H   0  0  0  0  0  0  0  0  0  0  0  0
  126.8337   -0.5637   -2.4723 H   0  0  0  0  0  0  0  0  0  0  0  0
  138.8560    0.0067    0.0868 C   0  0  0  0  0  0  0  0  0  0  0  0
  139.5202    0.1496    1.3218 C   0  0  0  0  0  0  0  0  0  0  0  0
  138.9156    0.2790    2.5971 C   0  0  0  0  0  0  0  0  0  0  0  0
  139.9089    0.2925    3.5378 C   0  0  0  0  0  0  0  0  0  0  0  0
  141.1541    0.1886    2.8618 C   0  0  0  0  0  0  0  0  0  0  0  0
  140.8688    0.1140    1.5239 N   0  0  0  0  0  0  0  0  0  0  0  0
  142.4238    0.1033    3.4480 C   0  0  0  0  0  0  0  0  0  0  0  0
  142.4669    0.1449    4.9308 C   0  0  0  0  0  0  0  0  0  0  0  0
  142.9506   -0.9448    5.6596 C   0  0  0  0  0  0  0  0  0  0  0  0
  142.9856   -0.9115    7.0409 C   0  0  0  0  0  0  0  0  0  0  0  0
  142.5419    0.2197    7.7367 C   0  0  0  0  0  0  0  0  0  0  0  0
  142.6504    0.2295    9.1201 N   0  0  0  0  0  0  0  0  0  0  0  0
  141.7914    1.1085    9.9023 C   0  0  0  0  0  0  0  0  0  0  0  0
  142.0706    1.3177    7.0117 C   0  0  0  0  0  0  0  0  0  0  0  0
  142.0284    1.2712    5.6283 C   0  0  0  0  0  0  0  0  0  0  0  0
  143.6335   -0.0143    2.7612 C   0  0  0  0  0  0  0  0  0  0  0  0
  144.9278   -0.0652    3.4166 C   0  0  0  0  0  0  0  0  0  0  0  0
  145.8524   -0.1015    2.4350 C   0  0  0  0  0  0  0  0  0  0  0  0
  143.7951   -0.0229    1.4089 N   0  0  0  0  0  0  0  0  0  0  0  0
  145.1253   -0.0588    1.1833 C   0  0  0  0  0  0  0  0  0  0  0  0
  145.7619   -0.0112   -0.0733 C   0  0  0  0  0  0  0  0  0  0  0  0
  145.0984    0.0121   -1.3164 C   0  0  0  0  0  0  0  0  0  0  0  0
  145.6977    0.1366   -2.5944 C   0  0  0  0  0  0  0  0  0  0  0  0
  144.7040    0.0815   -3.5345 C   0  0  0  0  0  0  0  0  0  0  0  0
  143.4674   -0.0827   -2.8555 C   0  0  0  0  0  0  0  0  0  0  0  0
  143.7541   -0.0995   -1.5165 N   0  0  0  0  0  0  0  0  0  0  0  0
  142.1966   -0.2122   -3.4339 C   0  0  0  0  0  0  0  0  0  0  0  0
  142.1519   -0.2919   -4.9117 C   0  0  0  0  0  0  0  0  0  0  0  0
  141.4003    0.6217   -5.6539 C   0  0  0  0  0  0  0  0  0  0  0  0
  141.3574    0.5594   -7.0360 C   0  0  0  0  0  0  0  0  0  0  0  0
  142.0594   -0.4402   -7.7158 C   0  0  0  0  0  0  0  0  0  0  0  0
  142.0882   -0.5225   -9.1005 N   0  0  0  0  0  0  0  0  0  0  0  0
  140.9872    0.0326   -9.8766 C   0  0  0  0  0  0  0  0  0  0  0  0
  142.8185   -1.3563   -6.9773 C   0  0  0  0  0  0  0  0  0  0  0  0
  142.8654   -1.2790   -5.5984 C   0  0  0  0  0  0  0  0  0  0  0  0
  140.9888   -0.2674   -2.7347 C   0  0  0  0  0  0  0  0  0  0  0  0
  139.7057   -0.5179   -3.3637 C   0  0  0  0  0  0  0  0  0  0  0  0
  138.7801   -0.4510   -2.3835 C   0  0  0  0  0  0  0  0  0  0  0  0
  139.4974   -0.1672   -1.1587 C   0  0  0  0  0  0  0  0  0  0  0  0
  140.8232   -0.0888   -1.3941 N   0  0  0  0  0  0  0  0  0  0  0  0
  137.8548    0.3439    2.7701 H   0  0  0  0  0  0  0  0  0  0  0  0
  139.7881    0.3568    4.6068 H   0  0  0  0  0  0  0  0  0  0  0  0
  141.5634    0.0268    0.7895 H   0  0  0  0  0  0  0  0  0  0  0  0
  143.2824   -1.8337    5.1345 H   0  0  0  0  0  0  0  0  0  0  0  0
  143.3577   -1.7669    7.5950 H   0  0  0  0  0  0  0  0  0  0  0  0
  142.7069   -0.7024    9.5133 H   0  0  0  0  0  0  0  0  0  0  0  0
  140.7357    0.9832    9.6351 H   0  0  0  0  0  0  0  0  0  0  0  0
  141.9282    0.8632   10.9555 H   0  0  0  0  0  0  0  0  0  0  0  0
  142.0799    2.1488    9.7462 H   0  0  0  0  0  0  0  0  0  0  0  0
  141.7391    2.2142    7.5210 H   0  0  0  0  0  0  0  0  0  0  0  0
  141.6699    2.1339    5.0771 H   0  0  0  0  0  0  0  0  0  0  0  0
  145.0888   -0.0582    4.4823 H   0  0  0  0  0  0  0  0  0  0  0  0
  146.9247   -0.1535    2.5267 H   0  0  0  0  0  0  0  0  0  0  0  0
  146.7530    0.2670   -2.7683 H   0  0  0  0  0  0  0  0  0  0  0  0
  144.8175    0.1660   -4.6029 H   0  0  0  0  0  0  0  0  0  0  0  0
  143.0626   -0.1757   -0.7782 H   0  0  0  0  0  0  0  0  0  0  0  0
  140.8596    1.4083   -5.1390 H   0  0  0  0  0  0  0  0  0  0  0  0
  140.7785    1.2949   -7.5808 H   0  0  0  0  0  0  0  0  0  0  0  0
  142.3665   -1.4391   -9.4303 H   0  0  0  0  0  0  0  0  0  0  0  0
  140.9930    1.1211   -9.8082 H   0  0  0  0  0  0  0  0  0  0  0  0
  141.1328   -0.2519  -10.9187 H   0  0  0  0  0  0  0  0  0  0  0  0
  140.0188   -0.3455   -9.5295 H   0  0  0  0  0  0  0  0  0  0  0  0
  143.3700   -2.1332   -7.4964 H   0  0  0  0  0  0  0  0  0  0  0  0
  143.4414   -2.0088   -5.0397 H   0  0  0  0  0  0  0  0  0  0  0  0
  139.5548   -0.7393   -4.4079 H   0  0  0  0  0  0  0  0  0  0  0  0
  137.7156   -0.6016   -2.4568 H   0  0  0  0  0  0  0  0  0  0  0  0
  1  2  4  0  0  0  0
  2  3  4  0  0  0  0
  3  4  2  0  0  0  0
  4  5  4  0  0  0  0
  2  6  4  0  0  0  0
  5  6  4  0  0  0  0
  5  7  4  0  0  0  0
  7  8  1  0  0  0  0
  8  9  4  0  0  0  0
  9 10  4  0  0  0  0
 10 11  4  0  0  0  0
 11 12  1  0  0  0  0
 12 13  1  0  0  0  0
 11 14  4  0  0  0  0
  8 15  4  0  0  0  0
 14 15  4  0  0  0  0
  7 16  4  0  0  0  0
 16 17  1  0  0  0  0
 17 18  2  0  0  0  0
 16 19  4  0  0  0  0
 18 20  1  0  0  0  0
 19 20  4  0  0  0  0
 20 21  4  0  0  0  0
 21 22  4  0  0  0  0
 22 23  4  0  0  0  0
 23 24  2  0  0  0  0
 24 25  4  0  0  0  0
 22 26  4  0  0  0  0
 25 26  4  0  0  0  0
 25 27  4  0  0  0  0
 27 28  1  0  0  0  0
 28 29  4  0  0  0  0
 29 30  4  0  0  0  0
 30 31  4  0  0  0  0
 31 32  1  0  0  0  0
 32 33  1  0  0  0  0
 31 34  4  0  0  0  0
 28 35  4  0  0  0  0
 34 35  4  0  0  0  0
 27 36  4  0  0  0  0
 36 37  1  0  0  0  0
 37 38  2  0  0  0  0
  1 39  4  0  0  0  0
 38 39  1  0  0  0  0
 36 40  4  0  0  0  0
 39 40  4  0  0  0  0
  1 41  1  0  0  0  0
  3 42  1  0  0  0  0
  4 43  1  0  0  0  0
  6 44  1  0  0  0  0
  9 45  1  0  0  0  0
 10 46  1  0  0  0  0
 12 47  1  0  0  0  0
 13 48  1  0  0  0  0
 13 49  1  0  0  0  0
 13 50  1  0  0  0  0
 14 51  1  0  0  0  0
 15 52  1  0  0  0  0
 17 53  1  0  0  0  0
 18 54  1  0  0  0  0
 23 55  1  0  0  0  0
 24 56  1  0  0  0  0
 26 57  1  0  0  0  0
 29 58  1  0  0  0  0
 30 59  1  0  0  0  0
 32 60  1  0  0  0  0
 33 61  1  0  0  0  0
 33 62  1  0  0  0  0
 33 63  1  0  0  0  0
 34 64  1  0  0  0  0
 35 65  1  0  0  0  0
 37 66  1  0  0  0  0
 38 67  1  0  0  0  0
 68 69  4  0  0  0  0
 69 70  4  0  0  0  0
 70 71  2  0  0  0  0
 71 72  4  0  0  0  0
 69 73  4  0  0  0  0
 72 73  4  0  0  0  0
 72 74  4  0  0  0  0
 74 75  1  0  0  0  0
 75 76  4  0  0  0  0
 76 77  4  0  0  0  0
 77 78  4  0  0  0  0
 78 79  1  0  0  0  0
 79 80  1  0  0  0  0
 78 81  4  0  0  0  0
 75 82  4  0  0  0  0
 81 82  4  0  0  0  0
 74 83  4  0  0  0  0
 83 84  1  0  0  0  0
 84 85  2  0  0  0  0
 83 86  4  0  0  0  0
 85 87  1  0  0  0  0
 86 87  4  0  0  0  0
 87 88  4  0  0  0  0
 88 89  4  0  0  0  0
 89 90  4  0  0  0  0
 90 91  2  0  0  0  0
 91 92  4  0  0  0  0
 89 93  4  0  0  0  0
 92 93  4  0  0  0  0
 92 94  4  0  0  0  0
 94 95  1  0  0  0  0
 95 96  4  0  0  0  0
 96 97  4  0  0  0  0
 97 98  4  0  0  0  0
 98 99  1  0  0  0  0
 99100  1  0  0  0  0
 98101  4  0  0  0  0
 95102  4  0  0  0  0
101102  4  0  0  0  0
 94103  4  0  0  0  0
103104  1  0  0  0  0
104105  2  0  0  0  0
 68106  4  0  0  0  0
105106  1  0  0  0  0
103107  4  0  0  0  0
106107  4  0  0  0  0
 68108  1  0  0  0  0
 70109  1  0  0  0  0
 71110  1  0  0  0  0
 73111  1  0  0  0  0
 76112  1  0  0  0  0
 77113  1  0  0  0  0
 79114  1  0  0  0  0
 80115  1  0  0  0  0
 80116  1  0  0  0  0
 80117  1  0  0  0  0
 81118  1  0  0  0  0
 82119  1  0  0  0  0
 84120  1  0  0  0  0
 85121  1  0  0  0  0
 90122  1  0  0  0  0
 91123  1  0  0  0  0
 93124  1  0  0  0  0
 96125  1  0  0  0  0
 97126  1  0  0  0  0
 99127  1  0  0  0  0
100128  1  0  0  0  0
100129  1  0  0  0  0
100130  1  0  0  0  0
101131  1  0  0  0  0
102132  1  0  0  0  0
104133  1  0  0  0  0
105134  1  0  0  0  0
 21135  4  0  0  0  0
135136  3  0  0  0  0
137138  3  0  0  0  0
139140  3  0  0  0  0
141142  3  0  0  0  0
 88144  4  0  0  0  0
143144  3  0  0  0  0
136145  4  0  0  0  0
145146  4  0  0  0  0
146147  4  0  0  0  0
147148  2  0  0  0  0
148149  4  0  0  0  0
146150  4  0  0  0  0
149150  4  0  0  0  0
149151  4  0  0  0  0
151152  1  0  0  0  0
152153  4  0  0  0  0
153154  4  0  0  0  0
154155  4  0  0  0  0
155156  1  0  0  0  0
156157  1  0  0  0  0
155158  4  0  0  0  0
152159  4  0  0  0  0
158159  4  0  0  0  0
151160  4  0  0  0  0
160161  1  0  0  0  0
161162  2  0  0  0  0
160163  4  0  0  0  0
162164  1  0  0  0  0
163164  4  0  0  0  0
137165  4  0  0  0  0
164165  4  0  0  0  0
165166  4  0  0  0  0
166167  4  0  0  0  0
167168  2  0  0  0  0
168169  4  0  0  0  0
166170  4  0  0  0  0
169170  4  0  0  0  0
169171  4  0  0  0  0
171172  1  0  0  0  0
172173  4  0  0  0  0
173174  4  0  0  0  0
174175  4  0  0  0  0
175176  1  0  0  0  0
176177  1  0  0  0  0
175178  4  0  0  0  0
172179  4  0  0  0  0
178179  4  0  0  0  0
171180  4  0  0  0  0
180181  1  0  0  0  0
181182  2  0  0  0  0
145183  4  0  0  0  0
182183  1  0  0  0  0
180184  4  0  0  0  0
183184  4  0  0  0  0
147185  1  0  0  0  0
148186  1  0  0  0  0
150187  1  0  0  0  0
153188  1  0  0  0  0
154189  1  0  0  0  0
156190  1  0  0  0  0
157191  1  0  0  0  0
157192  1  0  0  0  0
157193  1  0  0  0  0
158194  1  0  0  0  0
159195  1  0  0  0  0
161196  1  0  0  0  0
162197  1  0  0  0  0
167198  1  0  0  0  0
168199  1  0  0  0  0
170200  1  0  0  0  0
173201  1  0  0  0  0
174202  1  0  0  0  0
176203  1  0  0  0  0
177204  1  0  0  0  0
177205  1  0  0  0  0
177206  1  0  0  0  0
178207  1  0  0  0  0
179208  1  0  0  0  0
181209  1  0  0  0  0
182210  1  0  0  0  0
138211  4  0  0  0  0
211212  4  0  0  0  0
212213  4  0  0  0  0
213214  2  0  0  0  0
214215  4  0  0  0  0
212216  4  0  0  0  0
215216  4  0  0  0  0
215217  4  0  0  0  0
217218  1  0  0  0  0
218219  4  0  0  0  0
219220  4  0  0  0  0
220221  4  0  0  0  0
221222  1  0  0  0  0
222223  1  0  0  0  0
221224  4  0  0  0  0
218225  4  0  0  0  0
224225  4  0  0  0  0
217226  4  0  0  0  0
226227  1  0  0  0  0
227228  2  0  0  0  0
226229  4  0  0  0  0
228230  1  0  0  0  0
229230  4  0  0  0  0
139231  4  0  0  0  0
230231  4  0  0  0  0
231232  4  0  0  0  0
232233  4  0  0  0  0
233234  2  0  0  0  0
234235  4  0  0  0  0
232236  4  0  0  0  0
235236  4  0  0  0  0
235237  4  0  0  0  0
237238  1  0  0  0  0
238239  4  0  0  0  0
239240  4  0  0  0  0
240241  4  0  0  0  0
241242  1  0  0  0  0
242243  1  0  0  0  0
241244  4  0  0  0  0
238245  4  0  0  0  0
244245  4  0  0  0  0
237246  4  0  0  0  0
246247  1  0  0  0  0
247248  2  0  0  0  0
211249  4  0  0  0  0
248249  1  0  0  0  0
246250  4  0  0  0  0
249250  4  0  0  0  0
213251  1  0  0  0  0
214252  1  0  0  0  0
216253  1  0  0  0  0
219254  1  0  0  0  0
220255  1  0  0  0  0
222256  1  0  0  0  0
223257  1  0  0  0  0
223258  1  0  0  0  0
223259  1  0  0  0  0
224260  1  0  0  0  0
225261  1  0  0  0  0
227262  1  0  0  0  0
228263  1  0  0  0  0
233264  1  0  0  0  0
234265  1  0  0  0  0
236266  1  0  0  0  0
239267  1  0  0  0  0
240268  1  0  0  0  0
242269  1  0  0  0  0
243270  1  0  0  0  0
243271  1  0  0  0  0
243272  1  0  0  0  0
244273  1  0  0  0  0
245274  1  0  0  0  0
247275  1  0  0  0  0
248276  1  0  0  0  0
140277  4  0  0  0  0
277278  4  0  0  0  0
278279  4  0  0  0  0
279280  2  0  0  0  0
280281  4  0  0  0  0
278282  4  0  0  0  0
281282  4  0  0  0  0
281283  4  0  0  0  0
283284  1  0  0  0  0
284285  4  0  0  0  0
285286  4  0  0  0  0
286287  4  0  0  0  0
287288  1  0  0  0  0
288289  1  0  0  0  0
287290  4  0  0  0  0
284291  4  0  0  0  0
290291  4  0  0  0  0
283292  4  0  0  0  0
292293  1  0  0  0  0
293294  2  0  0  0  0
292295  4  0  0  0  0
294296  1  0  0  0  0
295296  4  0  0  0  0
141297  4  0  0  0  0
296297  4  0  0  0  0
297298  4  0  0  0  0
298299  4  0  0  0  0
299300  2  0  0  0  0
300301  4  0  0  0  0
298302  4  0  0  0  0
301302  4  0  0  0  0
301303  4  0  0  0  0
303304  1  0  0  0  0
304305  4  0  0  0  0
305306  4  0  0  0  0
306307  4  0  0  0  0
307308  1  0  0  0  0
308309  1  0  0  0  0
307310  4  0  0  0  0
304311  4  0  0  0  0
310311  4  0  0  0  0
303312  4  0  0  0  0
312313  1  0  0  0  0
313314  2  0  0  0  0
277315  4  0  0  0  0
314315  1  0  0  0  0
312316  4  0  0  0  0
315316  4  0  0  0  0
279317  1  0  0  0  0
280318  1  0  0  0  0
282319  1  0  0  0  0
285320  1  0  0  0  0
286321  1  0  0  0  0
288322  1  0  0  0  0
289323  1  0  0  0  0
289324  1  0  0  0  0
289325  1  0  0  0  0
290326  1  0  0  0  0
291327  1  0  0  0  0
293328  1  0  0  0  0
294329  1  0  0  0  0
299330  1  0  0  0  0
300331  1  0  0  0  0
302332  1  0  0  0  0
305333  1  0  0  0  0
306334  1  0  0  0  0
308335  1  0  0  0  0
309336  1  0  0  0  0
309337  1  0  0  0  0
309338  1  0  0  0  0
310339  1  0  0  0  0
311340  1  0  0  0  0
313341  1  0  0  0  0
314342  1  0  0  0  0
142343  4  0  0  0  0
343344  4  0  0  0  0
344345  4  0  0  0  0
345346  2  0  0  0  0
346347  4  0  0  0  0
344348  4  0  0  0  0
347348  4  0  0  0  0
347349  4  0  0  0  0
349350  1  0  0  0  0
350351  4  0  0  0  0
351352  4  0  0  0  0
352353  4  0  0  0  0
353354  1  0  0  0  0
354355  1  0  0  0  0
353356  4  0  0  0  0
350357  4  0  0  0  0
356357  4  0  0  0  0
349358  4  0  0  0  0
358359  1  0  0  0  0
359360  2  0  0  0  0
358361  4  0  0  0  0
360362  1  0  0  0  0
361362  4  0  0  0  0
143363  4  0  0  0  0
362363  4  0  0  0  0
363364  4  0  0  0  0
364365  4  0  0  0  0
365366  2  0  0  0  0
366367  4  0  0  0  0
364368  4  0  0  0  0
367368  4  0  0  0  0
367369  4  0  0  0  0
369370  1  0  0  0  0
370371  4  0  0  0  0
371372  4  0  0  0  0
372373  4  0  0  0  0
373374  1  0  0  0  0
374375  1  0  0  0  0
373376  4  0  0  0  0
370377  4  0  0  0  0
376377  4  0  0  0  0
369378  4  0  0  0  0
378379  1  0  0  0  0
379380  2  0  0  0  0
343381  4  0  0  0  0
380381  1  0  0  0  0
378382  4  0  0  0  0
381382  4  0  0  0  0
345383  1  0  0  0  0
346384  1  0  0  0  0
348385  1  0  0  0  0
351386  1  0  0  0  0
352387  1  0  0  0  0
354388  1  0  0  0  0
355389  1  0  0  0  0
355390  1  0  0  0  0
355391  1  0  0  0  0
356392  1  0  0  0  0
357393  1  0  0  0  0
359394  1  0  0  0  0
360395  1  0  0  0  0
365396  1  0  0  0  0
366397  1  0  0  0  0
368398  1  0  0  0  0
371399  1  0  0  0  0
372400  1  0  0  0  0
374401  1  0  0  0  0
375402  1  0  0  0  0
375403  1  0  0  0  0
375404  1  0  0  0  0
376405  1  0  0  0  0
377406  1  0  0  0  0
379407  1  0  0  0  0
380408  1  0  0  0  0
M  END
