 xtb: 6.5.1 (b24c23e)
          07302209103D

126145  0     0  0            999 V2000
   14.5460    0.0380   -0.0307 Zn  0  0  0  0  0  0  0  0  0  0  0  0
   11.1370    0.0780   -0.0979 C   0  0  0  0  0  0  0  0  0  0  0  0
   11.7665    1.3070    0.0570 C   0  0  0  0  0  0  0  0  0  0  0  0
   11.0919    2.5628    0.2307 C   0  0  0  0  0  0  0  0  0  0  0  0
   12.0503    3.5124    0.3697 C   0  0  0  0  0  0  0  0  0  0  0  0
   13.3236    2.8488    0.2705 C   0  0  0  0  0  0  0  0  0  0  0  0
   13.1162    1.5131    0.0890 N   0  0  0  0  0  0  0  0  0  0  0  0
   14.5754    3.4681    0.3777 C   0  0  0  0  0  0  0  0  0  0  0  0
   14.5900    4.9378    0.5702 C   0  0  0  0  0  0  0  0  0  0  0  0
   15.1534    5.4934    1.7234 C   0  0  0  0  0  0  0  0  0  0  0  0
   15.1642    6.8625    1.9060 C   0  0  0  0  0  0  0  0  0  0  0  0
   14.6163    7.7100    0.9370 C   0  0  0  0  0  0  0  0  0  0  0  0
   14.6426    9.1674    1.1526 C   0  0  0  0  0  0  0  0  0  0  0  0
   15.1130    9.6920    2.1299 O   0  0  0  0  0  0  0  0  0  0  0  0
   14.0556    7.1569   -0.2170 C   0  0  0  0  0  0  0  0  0  0  0  0
   14.0407    5.7852   -0.3964 C   0  0  0  0  0  0  0  0  0  0  0  0
   15.8150    2.8203    0.3233 C   0  0  0  0  0  0  0  0  0  0  0  0
   17.0949    3.4717    0.3729 C   0  0  0  0  0  0  0  0  0  0  0  0
   18.0406    2.5036    0.2694 C   0  0  0  0  0  0  0  0  0  0  0  0
   16.0076    1.4728    0.1770 N   0  0  0  0  0  0  0  0  0  0  0  0
   17.3495    1.2536    0.1484 C   0  0  0  0  0  0  0  0  0  0  0  0
   17.9808    0.0005    0.0131 C   0  0  0  0  0  0  0  0  0  0  0  0
   17.3271   -1.2398   -0.1302 C   0  0  0  0  0  0  0  0  0  0  0  0
   17.9946   -2.4983   -0.2884 C   0  0  0  0  0  0  0  0  0  0  0  0
   17.0308   -3.4469   -0.4058 C   0  0  0  0  0  0  0  0  0  0  0  0
   15.7633   -2.7763   -0.3125 C   0  0  0  0  0  0  0  0  0  0  0  0
   15.9811   -1.4342   -0.1534 N   0  0  0  0  0  0  0  0  0  0  0  0
   14.5115   -3.3953   -0.4091 C   0  0  0  0  0  0  0  0  0  0  0  0
   14.4951   -4.8701   -0.5587 C   0  0  0  0  0  0  0  0  0  0  0  0
   13.9374   -5.4597   -1.6970 C   0  0  0  0  0  0  0  0  0  0  0  0
   13.9189   -6.8358   -1.8370 C   0  0  0  0  0  0  0  0  0  0  0  0
   14.4535   -7.6524   -0.8373 C   0  0  0  0  0  0  0  0  0  0  0  0
   14.4407   -9.1208   -0.9601 C   0  0  0  0  0  0  0  0  0  0  0  0
   14.8862   -9.8671   -0.1261 O   0  0  0  0  0  0  0  0  0  0  0  0
   15.0105   -7.0632    0.3028 C   0  0  0  0  0  0  0  0  0  0  0  0
   15.0336   -5.6888    0.4390 C   0  0  0  0  0  0  0  0  0  0  0  0
   13.2719   -2.7438   -0.3732 C   0  0  0  0  0  0  0  0  0  0  0  0
   11.9862   -3.3887   -0.4267 C   0  0  0  0  0  0  0  0  0  0  0  0
   11.0458   -2.4149   -0.3443 C   0  0  0  0  0  0  0  0  0  0  0  0
   11.7439   -1.1652   -0.2281 C   0  0  0  0  0  0  0  0  0  0  0  0
   13.0894   -1.3982   -0.2456 N   0  0  0  0  0  0  0  0  0  0  0  0
   10.0514    0.0883   -0.1035 H   0  0  0  0  0  0  0  0  0  0  0  0
   10.0207    2.6889    0.2512 H   0  0  0  0  0  0  0  0  0  0  0  0
   11.9114    4.5683    0.5383 H   0  0  0  0  0  0  0  0  0  0  0  0
   15.5672    4.8387    2.4821 H   0  0  0  0  0  0  0  0  0  0  0  0
   15.5941    7.3004    2.8004 H   0  0  0  0  0  0  0  0  0  0  0  0
   14.1865    9.7581    0.3293 H   0  0  0  0  0  0  0  0  0  0  0  0
   13.6327    7.8074   -0.9757 H   0  0  0  0  0  0  0  0  0  0  0  0
   13.6173    5.3602   -1.2996 H   0  0  0  0  0  0  0  0  0  0  0  0
   17.2494    4.5350    0.4603 H   0  0  0  0  0  0  0  0  0  0  0  0
   19.1127    2.6194    0.2683 H   0  0  0  0  0  0  0  0  0  0  0  0
   19.0646   -2.6306   -0.3121 H   0  0  0  0  0  0  0  0  0  0  0  0
   17.1651   -4.5059   -0.5567 H   0  0  0  0  0  0  0  0  0  0  0  0
   13.5331   -4.8285   -2.4804 H   0  0  0  0  0  0  0  0  0  0  0  0
   13.4893   -7.2844   -2.7270 H   0  0  0  0  0  0  0  0  0  0  0  0
   13.9796   -9.4954   -1.8989 H   0  0  0  0  0  0  0  0  0  0  0  0
   15.4198   -7.7049    1.0758 H   0  0  0  0  0  0  0  0  0  0  0  0
   15.4540   -5.2358    1.3299 H   0  0  0  0  0  0  0  0  0  0  0  0
   11.8272   -4.4524   -0.5031 H   0  0  0  0  0  0  0  0  0  0  0  0
    9.9725   -2.5222   -0.3513 H   0  0  0  0  0  0  0  0  0  0  0  0
   30.5915   -0.0337   -0.0357 Zn  0  0  0  0  0  0  0  0  0  0  0  0
   34.0005   -0.0635   -0.1078 C   0  0  0  0  0  0  0  0  0  0  0  0
   33.3711   -1.3022   -0.1285 C   0  0  0  0  0  0  0  0  0  0  0  0
   34.0459   -2.5699   -0.1345 C   0  0  0  0  0  0  0  0  0  0  0  0
   33.0875   -3.5297   -0.1322 C   0  0  0  0  0  0  0  0  0  0  0  0
   31.8141   -2.8587   -0.1368 C   0  0  0  0  0  0  0  0  0  0  0  0
   32.0215   -1.5109   -0.1267 N   0  0  0  0  0  0  0  0  0  0  0  0
   30.5624   -3.4871   -0.1200 C   0  0  0  0  0  0  0  0  0  0  0  0
   30.5480   -4.9692   -0.1387 C   0  0  0  0  0  0  0  0  0  0  0  0
   29.9849   -5.6835    0.9238 C   0  0  0  0  0  0  0  0  0  0  0  0
   29.9743   -7.0646    0.9095 C   0  0  0  0  0  0  0  0  0  0  0  0
   30.5217   -7.7653   -0.1707 C   0  0  0  0  0  0  0  0  0  0  0  0
   30.4952   -9.2387   -0.1650 C   0  0  0  0  0  0  0  0  0  0  0  0
   30.0251   -9.8971    0.7278 O   0  0  0  0  0  0  0  0  0  0  0  0
   31.0821   -7.0535   -1.2343 C   0  0  0  0  0  0  0  0  0  0  0  0
   31.0970   -5.6702   -1.2163 C   0  0  0  0  0  0  0  0  0  0  0  0
   29.3227   -2.8382   -0.0826 C   0  0  0  0  0  0  0  0  0  0  0  0
   28.0430   -3.4901   -0.1275 C   0  0  0  0  0  0  0  0  0  0  0  0
   27.0972   -2.5172   -0.0923 C   0  0  0  0  0  0  0  0  0  0  0  0
   29.1301   -1.4836   -0.0351 N   0  0  0  0  0  0  0  0  0  0  0  0
   27.7881   -1.2628   -0.0330 C   0  0  0  0  0  0  0  0  0  0  0  0
   27.1567   -0.0033    0.0124 C   0  0  0  0  0  0  0  0  0  0  0  0
   27.8103    1.2449    0.0480 C   0  0  0  0  0  0  0  0  0  0  0  0
   27.1426    2.5130    0.0715 C   0  0  0  0  0  0  0  0  0  0  0  0
   28.1062    3.4687    0.0904 C   0  0  0  0  0  0  0  0  0  0  0  0
   29.3739    2.7919    0.0866 C   0  0  0  0  0  0  0  0  0  0  0  0
   29.1562    1.4408    0.0526 N   0  0  0  0  0  0  0  0  0  0  0  0
   30.6257    3.4185    0.0786 C   0  0  0  0  0  0  0  0  0  0  0  0
   30.6420    4.8995    0.1405 C   0  0  0  0  0  0  0  0  0  0  0  0
   31.2011    5.6450   -0.9016 C   0  0  0  0  0  0  0  0  0  0  0  0
   31.2200    7.0271   -0.8442 C   0  0  0  0  0  0  0  0  0  0  0  0
   30.6841    7.6932    0.2608 C   0  0  0  0  0  0  0  0  0  0  0  0
   30.6973    9.1641    0.3482 C   0  0  0  0  0  0  0  0  0  0  0  0
   30.2503    9.7843    1.2792 O   0  0  0  0  0  0  0  0  0  0  0  0
   30.1252    6.9479    1.3046 C   0  0  0  0  0  0  0  0  0  0  0  0
   30.1020    5.5681    1.2438 C   0  0  0  0  0  0  0  0  0  0  0  0
   31.8653    2.7686    0.0209 C   0  0  0  0  0  0  0  0  0  0  0  0
   33.1510    3.4146    0.0590 C   0  0  0  0  0  0  0  0  0  0  0  0
   34.0914    2.4390    0.0018 C   0  0  0  0  0  0  0  0  0  0  0  0
   33.3934    1.1854   -0.0603 C   0  0  0  0  0  0  0  0  0  0  0  0
   32.0479    1.4185   -0.0441 N   0  0  0  0  0  0  0  0  0  0  0  0
   35.0861   -0.0728   -0.1148 H   0  0  0  0  0  0  0  0  0  0  0  0
   35.1170   -2.6975   -0.1315 H   0  0  0  0  0  0  0  0  0  0  0  0
   33.2264   -4.5988   -0.1152 H   0  0  0  0  0  0  0  0  0  0  0  0
   29.5712   -5.1436    1.7681 H   0  0  0  0  0  0  0  0  0  0  0  0
   29.5448   -7.6256    1.7326 H   0  0  0  0  0  0  0  0  0  0  0  0
   30.9503   -9.7060   -1.0645 H   0  0  0  0  0  0  0  0  0  0  0  0
   31.5045   -7.5891   -2.0782 H   0  0  0  0  0  0  0  0  0  0  0  0
   31.5200   -5.1208   -2.0499 H   0  0  0  0  0  0  0  0  0  0  0  0
   27.8887   -4.5551   -0.1929 H   0  0  0  0  0  0  0  0  0  0  0  0
   26.0251   -2.6317   -0.1110 H   0  0  0  0  0  0  0  0  0  0  0  0
   26.0726    2.6472    0.0672 H   0  0  0  0  0  0  0  0  0  0  0  0
   27.9717    4.5384    0.0922 H   0  0  0  0  0  0  0  0  0  0  0  0
   31.6063    5.1317   -1.7664 H   0  0  0  0  0  0  0  0  0  0  0  0
   31.6509    7.5976   -1.6607 H   0  0  0  0  0  0  0  0  0  0  0  0
   31.1606    9.6684   -0.5267 H   0  0  0  0  0  0  0  0  0  0  0  0
   29.7147    7.4731    2.1603 H   0  0  0  0  0  0  0  0  0  0  0  0
   29.6805    4.9930    2.0607 H   0  0  0  0  0  0  0  0  0  0  0  0
   33.3101    4.4784    0.1346 H   0  0  0  0  0  0  0  0  0  0  0  0
   35.1647    2.5463    0.0096 H   0  0  0  0  0  0  0  0  0  0  0  0
   23.1829    0.0015    0.0164 C   0  0  0  0  0  0  0  0  0  0  0  0
   21.9546   -0.0049    0.0165 C   0  0  0  0  0  0  0  0  0  0  0  0
   20.6102   -0.0079    0.0152 C   0  0  0  0  0  0  0  0  0  0  0  0
   19.3862   -0.0094    0.0144 C   0  0  0  0  0  0  0  0  0  0  0  0
   24.5273    0.0048    0.0156 C   0  0  0  0  0  0  0  0  0  0  0  0
   25.7513    0.0062    0.0149 C   0  0  0  0  0  0  0  0  0  0  0  0
  2  3  4  0  0  0  0
  3  4  4  0  0  0  0
  4  5  2  0  0  0  0
  5  6  4  0  0  0  0
  1  7  1  0  0  0  0
  3  7  4  0  0  0  0
  6  7  4  0  0  0  0
  6  8  4  0  0  0  0
  8  9  1  0  0  0  0
  9 10  4  0  0  0  0
 10 11  4  0  0  0  0
 11 12  4  0  0  0  0
 12 13  1  0  0  0  0
 13 14  2  0  0  0  0
 12 15  4  0  0  0  0
  9 16  4  0  0  0  0
 15 16  4  0  0  0  0
  8 17  4  0  0  0  0
 17 18  4  0  0  0  0
 18 19  2  0  0  0  0
  1 20  1  0  0  0  0
 17 20  4  0  0  0  0
 19 21  4  0  0  0  0
 20 21  4  0  0  0  0
 21 22  4  0  0  0  0
 22 23  4  0  0  0  0
 23 24  4  0  0  0  0
 24 25  2  0  0  0  0
 25 26  4  0  0  0  0
  1 27  1  0  0  0  0
 23 27  4  0  0  0  0
 26 27  4  0  0  0  0
 26 28  4  0  0  0  0
 28 29  1  0  0  0  0
 29 30  4  0  0  0  0
 30 31  4  0  0  0  0
 31 32  4  0  0  0  0
 32 33  1  0  0  0  0
 33 34  2  0  0  0  0
 32 35  4  0  0  0  0
 29 36  4  0  0  0  0
 35 36  4  0  0  0  0
 28 37  4  0  0  0  0
 37 38  4  0  0  0  0
 38 39  2  0  0  0  0
  2 40  4  0  0  0  0
 39 40  4  0  0  0  0
  1 41  1  0  0  0  0
 37 41  4  0  0  0  0
 40 41  4  0  0  0  0
  2 42  1  0  0  0  0
  4 43  1  0  0  0  0
  5 44  1  0  0  0  0
 10 45  1  0  0  0  0
 11 46  1  0  0  0  0
 13 47  1  0  0  0  0
 15 48  1  0  0  0  0
 16 49  1  0  0  0  0
 18 50  1  0  0  0  0
 19 51  1  0  0  0  0
 24 52  1  0  0  0  0
 25 53  1  0  0  0  0
 30 54  1  0  0  0  0
 31 55  1  0  0  0  0
 33 56  1  0  0  0  0
 35 57  1  0  0  0  0
 36 58  1  0  0  0  0
 38 59  1  0  0  0  0
 39 60  1  0  0  0  0
 62 63  4  0  0  0  0
 63 64  4  0  0  0  0
 64 65  2  0  0  0  0
 65 66  4  0  0  0  0
 61 67  1  0  0  0  0
 63 67  4  0  0  0  0
 66 67  4  0  0  0  0
 66 68  4  0  0  0  0
 68 69  1  0  0  0  0
 69 70  4  0  0  0  0
 70 71  4  0  0  0  0
 71 72  4  0  0  0  0
 72 73  1  0  0  0  0
 73 74  2  0  0  0  0
 72 75  4  0  0  0  0
 69 76  4  0  0  0  0
 75 76  4  0  0  0  0
 68 77  4  0  0  0  0
 77 78  4  0  0  0  0
 78 79  2  0  0  0  0
 61 80  1  0  0  0  0
 77 80  4  0  0  0  0
 79 81  4  0  0  0  0
 80 81  4  0  0  0  0
 81 82  4  0  0  0  0
 82 83  4  0  0  0  0
 83 84  4  0  0  0  0
 84 85  2  0  0  0  0
 85 86  4  0  0  0  0
 61 87  1  0  0  0  0
 83 87  4  0  0  0  0
 86 87  4  0  0  0  0
 86 88  4  0  0  0  0
 88 89  1  0  0  0  0
 89 90  4  0  0  0  0
 90 91  4  0  0  0  0
 91 92  4  0  0  0  0
 92 93  1  0  0  0  0
 93 94  2  0  0  0  0
 92 95  4  0  0  0  0
 89 96  4  0  0  0  0
 95 96  4  0  0  0  0
 88 97  4  0  0  0  0
 97 98  4  0  0  0  0
 98 99  2  0  0  0  0
 62100  4  0  0  0  0
 99100  4  0  0  0  0
 61101  1  0  0  0  0
 97101  4  0  0  0  0
100101  4  0  0  0  0
 62102  1  0  0  0  0
 64103  1  0  0  0  0
 65104  1  0  0  0  0
 70105  1  0  0  0  0
 71106  1  0  0  0  0
 73107  1  0  0  0  0
 75108  1  0  0  0  0
 76109  1  0  0  0  0
 78110  1  0  0  0  0
 79111  1  0  0  0  0
 84112  1  0  0  0  0
 85113  1  0  0  0  0
 90114  1  0  0  0  0
 91115  1  0  0  0  0
 93116  1  0  0  0  0
 95117  1  0  0  0  0
 96118  1  0  0  0  0
 98119  1  0  0  0  0
 99120  1  0  0  0  0
121122  3  0  0  0  0
122123  4  0  0  0  0
 22124  4  0  0  0  0
123124  3  0  0  0  0
121125  4  0  0  0  0
 82126  4  0  0  0  0
125126  3  0  0  0  0
M  END
