 xtb: 6.5.1 (b24c23e)
          07302209393D

187216  0     0  0            999 V2000
   31.6387    0.0294    0.0319 Zn  0  0  0  0  0  0  0  0  0  0  0  0
   28.2301    0.0976    0.0837 C   0  0  0  0  0  0  0  0  0  0  0  0
   28.8632    1.2186   -0.4403 C   0  0  0  0  0  0  0  0  0  0  0  0
   28.1929    2.3655   -0.9849 C   0  0  0  0  0  0  0  0  0  0  0  0
   29.1549    3.2327   -1.3895 C   0  0  0  0  0  0  0  0  0  0  0  0
   30.4258    2.6308   -1.0858 C   0  0  0  0  0  0  0  0  0  0  0  0
   30.2133    1.4071   -0.5206 N   0  0  0  0  0  0  0  0  0  0  0  0
   31.6785    3.2002   -1.3486 C   0  0  0  0  0  0  0  0  0  0  0  0
   31.6974    4.5596   -1.9425 C   0  0  0  0  0  0  0  0  0  0  0  0
   32.2798    4.7823   -3.1926 C   0  0  0  0  0  0  0  0  0  0  0  0
   32.3004    6.0482   -3.7511 C   0  0  0  0  0  0  0  0  0  0  0  0
   31.7491    7.1288   -3.0583 C   0  0  0  0  0  0  0  0  0  0  0  0
   31.7347    8.3906   -3.6298 N   0  0  0  0  0  0  0  0  0  0  0  0
   31.1599    6.9140   -1.8099 C   0  0  0  0  0  0  0  0  0  0  0  0
   31.1349    5.6429   -1.2634 C   0  0  0  0  0  0  0  0  0  0  0  0
   32.9150    2.5945   -1.0968 C   0  0  0  0  0  0  0  0  0  0  0  0
   34.1968    3.2061   -1.3126 C   0  0  0  0  0  0  0  0  0  0  0  0
   35.1400    2.3029   -0.9403 C   0  0  0  0  0  0  0  0  0  0  0  0
   33.1043    1.3386   -0.5836 N   0  0  0  0  0  0  0  0  0  0  0  0
   34.4452    1.1355   -0.4847 C   0  0  0  0  0  0  0  0  0  0  0  0
   35.0720   -0.0366   -0.0145 C   0  0  0  0  0  0  0  0  0  0  0  0
   34.4138   -1.1854    0.4699 C   0  0  0  0  0  0  0  0  0  0  0  0
   35.0753   -2.3807    0.9022 C   0  0  0  0  0  0  0  0  0  0  0  0
   34.1084   -3.2490    1.2962 C   0  0  0  0  0  0  0  0  0  0  0  0
   32.8456   -2.5875    1.1186 C   0  0  0  0  0  0  0  0  0  0  0  0
   33.0691   -1.3375    0.6045 N   0  0  0  0  0  0  0  0  0  0  0  0
   31.5938   -3.1451    1.4041 C   0  0  0  0  0  0  0  0  0  0  0  0
   31.5746   -4.5089    1.9873 C   0  0  0  0  0  0  0  0  0  0  0  0
   32.1897   -4.7697    3.2141 C   0  0  0  0  0  0  0  0  0  0  0  0
   32.1748   -6.0411    3.7600 C   0  0  0  0  0  0  0  0  0  0  0  0
   31.5530   -7.0897    3.0777 C   0  0  0  0  0  0  0  0  0  0  0  0
   31.5038   -8.3557    3.6379 N   0  0  0  0  0  0  0  0  0  0  0  0
   30.9300   -6.8364    1.8532 C   0  0  0  0  0  0  0  0  0  0  0  0
   30.9417   -5.5599    1.3192 C   0  0  0  0  0  0  0  0  0  0  0  0
   30.3576   -2.5242    1.1821 C   0  0  0  0  0  0  0  0  0  0  0  0
   29.0735   -3.0749    1.5250 C   0  0  0  0  0  0  0  0  0  0  0  0
   28.1351   -2.1685    1.1523 C   0  0  0  0  0  0  0  0  0  0  0  0
   28.8338   -1.0483    0.5880 C   0  0  0  0  0  0  0  0  0  0  0  0
   30.1771   -1.2912    0.6260 N   0  0  0  0  0  0  0  0  0  0  0  0
   27.1446    0.1193    0.1005 H   0  0  0  0  0  0  0  0  0  0  0  0
   27.1220    2.4783   -1.0531 H   0  0  0  0  0  0  0  0  0  0  0  0
   29.0199    4.1915   -1.8643 H   0  0  0  0  0  0  0  0  0  0  0  0
   32.7034    3.9471   -3.7398 H   0  0  0  0  0  0  0  0  0  0  0  0
   32.7460    6.2062   -4.7272 H   0  0  0  0  0  0  0  0  0  0  0  0
   32.4412    8.5455   -4.3314 H   0  0  0  0  0  0  0  0  0  0  0  0
   31.6412    9.1508   -2.9749 H   0  0  0  0  0  0  0  0  0  0  0  0
   30.7267    7.7485   -1.2691 H   0  0  0  0  0  0  0  0  0  0  0  0
   30.6920    5.4876   -0.2856 H   0  0  0  0  0  0  0  0  0  0  0  0
   34.3544    4.2047   -1.6873 H   0  0  0  0  0  0  0  0  0  0  0  0
   36.2125    2.4142   -0.9620 H   0  0  0  0  0  0  0  0  0  0  0  0
   36.1430   -2.5328    0.8942 H   0  0  0  0  0  0  0  0  0  0  0  0
   34.2380   -4.2549    1.6621 H   0  0  0  0  0  0  0  0  0  0  0  0
   32.6677   -3.9594    3.7538 H   0  0  0  0  0  0  0  0  0  0  0  0
   32.6473   -6.2285    4.7182 H   0  0  0  0  0  0  0  0  0  0  0  0
   32.2272   -8.5488    4.3121 H   0  0  0  0  0  0  0  0  0  0  0  0
   31.3533   -9.1041    2.9799 H   0  0  0  0  0  0  0  0  0  0  0  0
   30.4418   -7.6456    1.3209 H   0  0  0  0  0  0  0  0  0  0  0  0
   30.4720   -5.3755    0.3591 H   0  0  0  0  0  0  0  0  0  0  0  0
   28.9146   -4.0283    2.0033 H   0  0  0  0  0  0  0  0  0  0  0  0
   27.0632   -2.2381    1.2542 H   0  0  0  0  0  0  0  0  0  0  0  0
   58.5919   -0.0189    0.0445 Zn  0  0  0  0  0  0  0  0  0  0  0  0
   62.0004   -0.0096    0.1365 C   0  0  0  0  0  0  0  0  0  0  0  0
   61.3674   -1.0676    0.7783 C   0  0  0  0  0  0  0  0  0  0  0  0
   62.0379   -2.1537    1.4358 C   0  0  0  0  0  0  0  0  0  0  0  0
   61.0760   -2.9743    1.9284 C   0  0  0  0  0  0  0  0  0  0  0  0
   59.8050   -2.3930    1.5873 C   0  0  0  0  0  0  0  0  0  0  0  0
   60.0174   -1.2434    0.8834 N   0  0  0  0  0  0  0  0  0  0  0  0
   58.5526   -2.9339    1.9051 C   0  0  0  0  0  0  0  0  0  0  0  0
   58.5335   -4.1815    2.7079 C   0  0  0  0  0  0  0  0  0  0  0  0
   57.9661   -5.3506    2.1957 C   0  0  0  0  0  0  0  0  0  0  0  0
   57.9430   -6.5151    2.9430 C   0  0  0  0  0  0  0  0  0  0  0  0
   58.4763   -6.5298    4.2341 C   0  0  0  0  0  0  0  0  0  0  0  0
   58.4872   -7.7023    4.9719 N   0  0  0  0  0  0  0  0  0  0  0  0
   59.0512   -5.3666    4.7517 C   0  0  0  0  0  0  0  0  0  0  0  0
   59.0791   -4.2093    3.9934 C   0  0  0  0  0  0  0  0  0  0  0  0
   57.3161   -2.3932    1.5340 C   0  0  0  0  0  0  0  0  0  0  0  0
   56.0343   -2.9201    1.9119 C   0  0  0  0  0  0  0  0  0  0  0  0
   55.0910   -2.1065    1.3717 C   0  0  0  0  0  0  0  0  0  0  0  0
   57.1267   -1.2637    0.7825 N   0  0  0  0  0  0  0  0  0  0  0  0
   55.7856   -1.0702    0.6667 C   0  0  0  0  0  0  0  0  0  0  0  0
   55.1584   -0.0164   -0.0286 C   0  0  0  0  0  0  0  0  0  0  0  0
   55.8158    1.0310   -0.7053 C   0  0  0  0  0  0  0  0  0  0  0  0
   55.1535    2.0600   -1.4506 C   0  0  0  0  0  0  0  0  0  0  0  0
   56.1204    2.8668   -1.9588 C   0  0  0  0  0  0  0  0  0  0  0  0
   57.3841    2.3453   -1.5172 C   0  0  0  0  0  0  0  0  0  0  0  0
   57.1610    1.2224   -0.7649 N   0  0  0  0  0  0  0  0  0  0  0  0
   58.6363    2.8879   -1.8290 C   0  0  0  0  0  0  0  0  0  0  0  0
   58.6565    4.1290   -2.6414 C   0  0  0  0  0  0  0  0  0  0  0  0
   58.0467    5.2970   -2.1772 C   0  0  0  0  0  0  0  0  0  0  0  0
   58.0632    6.4556   -2.9337 C   0  0  0  0  0  0  0  0  0  0  0  0
   58.6815    6.4661   -4.1864 C   0  0  0  0  0  0  0  0  0  0  0  0
   58.7326    7.6336   -4.9304 N   0  0  0  0  0  0  0  0  0  0  0  0
   59.2993    5.3043   -4.6555 C   0  0  0  0  0  0  0  0  0  0  0  0
   59.2859    4.1527   -3.8883 C   0  0  0  0  0  0  0  0  0  0  0  0
   59.8726    2.3558   -1.4399 C   0  0  0  0  0  0  0  0  0  0  0  0
   61.1569    2.9457   -1.7097 C   0  0  0  0  0  0  0  0  0  0  0  0
   62.0953    2.1335   -1.1612 C   0  0  0  0  0  0  0  0  0  0  0  0
   61.3965    1.0435   -0.5406 C   0  0  0  0  0  0  0  0  0  0  0  0
   60.0533    1.2096   -0.7219 N   0  0  0  0  0  0  0  0  0  0  0  0
   63.0858   -0.0055    0.1669 H   0  0  0  0  0  0  0  0  0  0  0  0
   63.1089   -2.2689    1.4985 H   0  0  0  0  0  0  0  0  0  0  0  0
   61.2109   -3.8998    2.4652 H   0  0  0  0  0  0  0  0  0  0  0  0
   57.5559   -5.3486    1.1917 H   0  0  0  0  0  0  0  0  0  0  0  0
   57.5089   -7.4193    2.5302 H   0  0  0  0  0  0  0  0  0  0  0  0
   57.7883   -8.3772    4.7044 H   0  0  0  0  0  0  0  0  0  0  0  0
   58.5656   -7.5744    5.9684 H   0  0  0  0  0  0  0  0  0  0  0  0
   59.4707   -5.3732    5.7519 H   0  0  0  0  0  0  0  0  0  0  0  0
   59.5108   -3.3053    4.4093 H   0  0  0  0  0  0  0  0  0  0  0  0
   55.8768   -3.7930    2.5249 H   0  0  0  0  0  0  0  0  0  0  0  0
   54.0184   -2.1903    1.4471 H   0  0  0  0  0  0  0  0  0  0  0  0
   54.0852    2.1425   -1.5744 H   0  0  0  0  0  0  0  0  0  0  0  0
   55.9901    3.7316   -2.5894 H   0  0  0  0  0  0  0  0  0  0  0  0
   57.5720    5.2994   -1.2020 H   0  0  0  0  0  0  0  0  0  0  0  0
   57.5949    7.3588   -2.5577 H   0  0  0  0  0  0  0  0  0  0  0  0
   58.0120    8.3044   -4.7160 H   0  0  0  0  0  0  0  0  0  0  0  0
   58.8805    7.4999   -5.9182 H   0  0  0  0  0  0  0  0  0  0  0  0
   59.7850    5.3077   -5.6253 H   0  0  0  0  0  0  0  0  0  0  0  0
   59.7516    3.2496   -4.2679 H   0  0  0  0  0  0  0  0  0  0  0  0
   61.3159    3.8717   -2.2389 H   0  0  0  0  0  0  0  0  0  0  0  0
   63.1671    2.2568   -1.1629 H   0  0  0  0  0  0  0  0  0  0  0  0
   37.6993   -0.0723   -0.0378 C   0  0  0  0  0  0  0  0  0  0  0  0
   36.4769   -0.0597   -0.0293 C   0  0  0  0  0  0  0  0  0  0  0  0
   39.0484   -0.0810   -0.0451 C   0  0  0  0  0  0  0  0  0  0  0  0
   40.2710   -0.0794   -0.0513 C   0  0  0  0  0  0  0  0  0  0  0  0
   51.1810   -0.0078   -0.0356 C   0  0  0  0  0  0  0  0  0  0  0  0
   49.9586   -0.0121   -0.0228 C   0  0  0  0  0  0  0  0  0  0  0  0
   52.5305   -0.0089   -0.0436 C   0  0  0  0  0  0  0  0  0  0  0  0
   53.7529   -0.0104   -0.0448 C   0  0  0  0  0  0  0  0  0  0  0  0
   45.1140   -0.0411   -0.0172 Zn  0  0  0  0  0  0  0  0  0  0  0  0
   41.6758   -0.0739   -0.0555 C   0  0  0  0  0  0  0  0  0  0  0  0
   42.3118    1.1298   -0.4229 C   0  0  0  0  0  0  0  0  0  0  0  0
   41.6253    2.3404   -0.7624 C   0  0  0  0  0  0  0  0  0  0  0  0
   42.5751    3.2772   -1.0168 C   0  0  0  0  0  0  0  0  0  0  0  0
   43.8519    2.6431   -0.8462 C   0  0  0  0  0  0  0  0  0  0  0  0
   43.6544    1.3379   -0.4803 N   0  0  0  0  0  0  0  0  0  0  0  0
   45.0933    3.2715   -0.9964 C   0  0  0  0  0  0  0  0  0  0  0  0
   45.0864    4.7017   -1.3926 C   0  0  0  0  0  0  0  0  0  0  0  0
   44.5424    5.1047   -2.6141 C   0  0  0  0  0  0  0  0  0  0  0  0
   44.5384    6.4386   -2.9833 C   0  0  0  0  0  0  0  0  0  0  0  0
   45.0782    7.4038   -2.1298 C   0  0  0  0  0  0  0  0  0  0  0  0
   45.0309    8.7451   -2.4730 N   0  0  0  0  0  0  0  0  0  0  0  0
   45.6131    7.0103   -0.9008 C   0  0  0  0  0  0  0  0  0  0  0  0
   45.6228    5.6733   -0.5444 C   0  0  0  0  0  0  0  0  0  0  0  0
   46.3426    2.6716   -0.7995 C   0  0  0  0  0  0  0  0  0  0  0  0
   47.6106    3.3090   -1.0164 C   0  0  0  0  0  0  0  0  0  0  0  0
   48.5729    2.3903   -0.7427 C   0  0  0  0  0  0  0  0  0  0  0  0
   46.5572    1.3769   -0.4077 N   0  0  0  0  0  0  0  0  0  0  0  0
   47.9025    1.1831   -0.3618 C   0  0  0  0  0  0  0  0  0  0  0  0
   48.5536   -0.0157   -0.0063 C   0  0  0  0  0  0  0  0  0  0  0  0
   47.9176   -1.2201    0.3583 C   0  0  0  0  0  0  0  0  0  0  0  0
   48.6033   -2.4345    0.6850 C   0  0  0  0  0  0  0  0  0  0  0  0
   47.6529   -3.3637    0.9649 C   0  0  0  0  0  0  0  0  0  0  0  0
   46.3769   -2.7219    0.8194 C   0  0  0  0  0  0  0  0  0  0  0  0
   46.5750   -1.4205    0.4410 N   0  0  0  0  0  0  0  0  0  0  0  0
   45.1349   -3.3405    1.0067 C   0  0  0  0  0  0  0  0  0  0  0  0
   45.1452   -4.7550    1.4538 C   0  0  0  0  0  0  0  0  0  0  0  0
   44.5703   -5.7567    0.6681 C   0  0  0  0  0  0  0  0  0  0  0  0
   44.5844   -7.0778    1.0798 C   0  0  0  0  0  0  0  0  0  0  0  0
   45.1753   -7.4266    2.2968 C   0  0  0  0  0  0  0  0  0  0  0  0
   45.1492   -8.7403    2.7349 N   0  0  0  0  0  0  0  0  0  0  0  0
   45.7408   -6.4292    3.0949 C   0  0  0  0  0  0  0  0  0  0  0  0
   45.7305   -5.1119    2.6710 C   0  0  0  0  0  0  0  0  0  0  0  0
   43.8854   -2.7410    0.8092 C   0  0  0  0  0  0  0  0  0  0  0  0
   42.6168   -3.3679    1.0522 C   0  0  0  0  0  0  0  0  0  0  0  0
   41.6553   -2.4577    0.7490 C   0  0  0  0  0  0  0  0  0  0  0  0
   42.3266   -1.2640    0.3292 C   0  0  0  0  0  0  0  0  0  0  0  0
   43.6716   -1.4582    0.3789 N   0  0  0  0  0  0  0  0  0  0  0  0
   40.5533    2.4552   -0.7912 H   0  0  0  0  0  0  0  0  0  0  0  0
   42.4243    4.3109   -1.2834 H   0  0  0  0  0  0  0  0  0  0  0  0
   44.1359    4.3592   -3.2895 H   0  0  0  0  0  0  0  0  0  0  0  0
   44.1188    6.7387   -3.9378 H   0  0  0  0  0  0  0  0  0  0  0  0
   44.9555    8.9274   -3.4609 H   0  0  0  0  0  0  0  0  0  0  0  0
   45.7076    9.3260   -2.0045 H   0  0  0  0  0  0  0  0  0  0  0  0
   46.0220    7.7569   -0.2282 H   0  0  0  0  0  0  0  0  0  0  0  0
   46.0337    5.3758    0.4145 H   0  0  0  0  0  0  0  0  0  0  0  0
   47.7469    4.3250   -1.3506 H   0  0  0  0  0  0  0  0  0  0  0  0
   49.6432    2.5115   -0.7971 H   0  0  0  0  0  0  0  0  0  0  0  0
   49.6749   -2.5568    0.6902 H   0  0  0  0  0  0  0  0  0  0  0  0
   47.8029   -4.3978    1.2307 H   0  0  0  0  0  0  0  0  0  0  0  0
   44.1258   -5.4967   -0.2864 H   0  0  0  0  0  0  0  0  0  0  0  0
   44.1407   -7.8474    0.4575 H   0  0  0  0  0  0  0  0  0  0  0  0
   45.8563   -8.9747    3.4134 H   0  0  0  0  0  0  0  0  0  0  0  0
   45.0436   -9.4278    2.0058 H   0  0  0  0  0  0  0  0  0  0  0  0
   46.1887   -6.6918    4.0471 H   0  0  0  0  0  0  0  0  0  0  0  0
   46.1641   -4.3422    3.3001 H   0  0  0  0  0  0  0  0  0  0  0  0
   42.4789   -4.3709    1.4228 H   0  0  0  0  0  0  0  0  0  0  0  0
   40.5850   -2.5750    0.8109 H   0  0  0  0  0  0  0  0  0  0  0  0
  2  3  4  0  0  0  0
  3  4  4  0  0  0  0
  4  5  2  0  0  0  0
  5  6  4  0  0  0  0
  1  7  1  0  0  0  0
  3  7  4  0  0  0  0
  6  7  4  0  0  0  0
  6  8  4  0  0  0  0
  8  9  1  0  0  0  0
  9 10  4  0  0  0  0
 10 11  4  0  0  0  0
 11 12  4  0  0  0  0
 12 13  1  0  0  0  0
 12 14  4  0  0  0  0
  9 15  4  0  0  0  0
 14 15  4  0  0  0  0
  8 16  4  0  0  0  0
 16 17  4  0  0  0  0
 17 18  2  0  0  0  0
  1 19  1  0  0  0  0
 16 19  4  0  0  0  0
 18 20  4  0  0  0  0
 19 20  4  0  0  0  0
 20 21  4  0  0  0  0
 21 22  4  0  0  0  0
 22 23  4  0  0  0  0
 23 24  2  0  0  0  0
 24 25  4  0  0  0  0
  1 26  1  0  0  0  0
 22 26  4  0  0  0  0
 25 26  4  0  0  0  0
 25 27  4  0  0  0  0
 27 28  1  0  0  0  0
 28 29  4  0  0  0  0
 29 30  4  0  0  0  0
 30 31  4  0  0  0  0
 31 32  1  0  0  0  0
 31 33  4  0  0  0  0
 28 34  4  0  0  0  0
 33 34  4  0  0  0  0
 27 35  4  0  0  0  0
 35 36  4  0  0  0  0
 36 37  2  0  0  0  0
  2 38  4  0  0  0  0
 37 38  4  0  0  0  0
  1 39  1  0  0  0  0
 35 39  4  0  0  0  0
 38 39  4  0  0  0  0
  2 40  1  0  0  0  0
  4 41  1  0  0  0  0
  5 42  1  0  0  0  0
 10 43  1  0  0  0  0
 11 44  1  0  0  0  0
 13 45  1  0  0  0  0
 13 46  1  0  0  0  0
 14 47  1  0  0  0  0
 15 48  1  0  0  0  0
 17 49  1  0  0  0  0
 18 50  1  0  0  0  0
 23 51  1  0  0  0  0
 24 52  1  0  0  0  0
 29 53  1  0  0  0  0
 30 54  1  0  0  0  0
 32 55  1  0  0  0  0
 32 56  1  0  0  0  0
 33 57  1  0  0  0  0
 34 58  1  0  0  0  0
 36 59  1  0  0  0  0
 37 60  1  0  0  0  0
 62 63  4  0  0  0  0
 63 64  4  0  0  0  0
 64 65  2  0  0  0  0
 65 66  4  0  0  0  0
 61 67  1  0  0  0  0
 63 67  4  0  0  0  0
 66 67  4  0  0  0  0
 66 68  4  0  0  0  0
 68 69  1  0  0  0  0
 69 70  4  0  0  0  0
 70 71  4  0  0  0  0
 71 72  4  0  0  0  0
 72 73  1  0  0  0  0
 72 74  4  0  0  0  0
 69 75  4  0  0  0  0
 74 75  4  0  0  0  0
 68 76  4  0  0  0  0
 76 77  4  0  0  0  0
 77 78  2  0  0  0  0
 61 79  1  0  0  0  0
 76 79  4  0  0  0  0
 78 80  4  0  0  0  0
 79 80  4  0  0  0  0
 80 81  4  0  0  0  0
 81 82  4  0  0  0  0
 82 83  4  0  0  0  0
 83 84  2  0  0  0  0
 84 85  4  0  0  0  0
 61 86  1  0  0  0  0
 82 86  4  0  0  0  0
 85 86  4  0  0  0  0
 85 87  4  0  0  0  0
 87 88  1  0  0  0  0
 88 89  4  0  0  0  0
 89 90  4  0  0  0  0
 90 91  4  0  0  0  0
 91 92  1  0  0  0  0
 91 93  4  0  0  0  0
 88 94  4  0  0  0  0
 93 94  4  0  0  0  0
 87 95  4  0  0  0  0
 95 96  4  0  0  0  0
 96 97  2  0  0  0  0
 62 98  4  0  0  0  0
 97 98  4  0  0  0  0
 61 99  1  0  0  0  0
 95 99  4  0  0  0  0
 98 99  4  0  0  0  0
 62100  1  0  0  0  0
 64101  1  0  0  0  0
 65102  1  0  0  0  0
 70103  1  0  0  0  0
 71104  1  0  0  0  0
 73105  1  0  0  0  0
 73106  1  0  0  0  0
 74107  1  0  0  0  0
 75108  1  0  0  0  0
 77109  1  0  0  0  0
 78110  1  0  0  0  0
 83111  1  0  0  0  0
 84112  1  0  0  0  0
 89113  1  0  0  0  0
 90114  1  0  0  0  0
 92115  1  0  0  0  0
 92116  1  0  0  0  0
 93117  1  0  0  0  0
 94118  1  0  0  0  0
 96119  1  0  0  0  0
 97120  1  0  0  0  0
 21122  4  0  0  0  0
121122  3  0  0  0  0
121123  4  0  0  0  0
123124  3  0  0  0  0
125126  3  0  0  0  0
125127  4  0  0  0  0
 81128  4  0  0  0  0
127128  3  0  0  0  0
124130  4  0  0  0  0
130131  4  0  0  0  0
131132  4  0  0  0  0
132133  2  0  0  0  0
133134  4  0  0  0  0
129135  1  0  0  0  0
131135  4  0  0  0  0
134135  4  0  0  0  0
134136  4  0  0  0  0
136137  1  0  0  0  0
137138  4  0  0  0  0
138139  4  0  0  0  0
139140  4  0  0  0  0
140141  1  0  0  0  0
140142  4  0  0  0  0
137143  4  0  0  0  0
142143  4  0  0  0  0
136144  4  0  0  0  0
144145  4  0  0  0  0
145146  2  0  0  0  0
129147  1  0  0  0  0
144147  4  0  0  0  0
146148  4  0  0  0  0
147148  4  0  0  0  0
126149  4  0  0  0  0
148149  4  0  0  0  0
149150  4  0  0  0  0
150151  4  0  0  0  0
151152  2  0  0  0  0
152153  4  0  0  0  0
129154  1  0  0  0  0
150154  4  0  0  0  0
153154  4  0  0  0  0
153155  4  0  0  0  0
155156  1  0  0  0  0
156157  4  0  0  0  0
157158  4  0  0  0  0
158159  4  0  0  0  0
159160  1  0  0  0  0
159161  4  0  0  0  0
156162  4  0  0  0  0
161162  4  0  0  0  0
155163  4  0  0  0  0
163164  4  0  0  0  0
164165  2  0  0  0  0
130166  4  0  0  0  0
165166  4  0  0  0  0
129167  1  0  0  0  0
163167  4  0  0  0  0
166167  4  0  0  0  0
132168  1  0  0  0  0
133169  1  0  0  0  0
138170  1  0  0  0  0
139171  1  0  0  0  0
141172  1  0  0  0  0
141173  1  0  0  0  0
142174  1  0  0  0  0
143175  1  0  0  0  0
145176  1  0  0  0  0
146177  1  0  0  0  0
151178  1  0  0  0  0
152179  1  0  0  0  0
157180  1  0  0  0  0
158181  1  0  0  0  0
160182  1  0  0  0  0
160183  1  0  0  0  0
161184  1  0  0  0  0
162185  1  0  0  0  0
164186  1  0  0  0  0
165187  1  0  0  0  0
M  END
