540

C 121.782360 -0.028332 0.078373
C 122.516236 1.194727 0.709535
C 121.922166 2.215231 1.416556
C 122.947251 3.136853 1.755840
C 124.131669 2.652007 1.234925
N 123.864458 1.439456 0.649760
C 125.551811 3.356931 1.272620
C 125.543545 4.791560 1.593189
C 125.233967 5.683506 0.627578
C 125.165036 7.164454 0.833661
N 125.611833 7.553666 2.169273
C 125.850483 6.623719 3.154450
C 125.844336 5.305218 2.924065
C 126.677811 2.657535 0.969108
C 127.977229 3.295316 0.939664
C 128.880066 2.388659 0.583957
N 126.875672 1.344920 0.629655
C 128.204689 1.121466 0.377978
C 128.871004 -0.002248 0.001152
C 128.093165 -1.372097 -0.195867
C 128.633016 -2.639559 -0.096502
C 127.607000 -3.566882 -0.406780
C 126.465664 -2.841104 -0.676887
N 126.758462 -1.509788 -0.491081
C 125.052442 -3.423866 -1.100907
C 125.062324 -4.758215 -1.714186
C 124.670781 -5.829334 -0.989569
C 124.600179 -7.228500 -1.517168
N 125.157880 -7.338352 -2.864350
C 125.461835 -6.220213 -3.608961
C 125.443730 -4.981230 -3.102847
C 123.931077 -2.681826 -0.904688
C 122.610723 -3.145895 -1.291891
C 121.724555 -2.212694 -0.955804
C 122.445347 -1.117021 -0.354862
N 123.766433 -1.439780 -0.357687
H 120.705176 0.022635 -0.023330
H 120.871715 2.294616 1.649721
H 122.830975 4.062950 2.298208
H 124.559361 0.817112 0.244836
H 125.006746 5.314357 -0.368993
H 124.133318 7.502546 0.685623
H 125.793588 7.668571 0.092199
H 125.309650 8.464334 2.490385
H 126.056426 7.029104 4.138845
H 126.051914 4.578621 3.702365
H 128.180456 4.329113 1.157186
H 129.931471 2.583687 0.475960
H 129.655792 -2.874822 0.157064
H 127.691896 -4.642953 -0.438019
H 126.075634 -0.757027 -0.514899
H 124.362074 -5.674606 0.041722
H 123.555202 -7.557180 -1.529795
H 125.155715 -7.899077 -0.853469
H 124.833016 -8.131315 -3.402943
H 125.724362 -6.407534 -4.644375
H 125.694708 -4.108429 -3.696660
H 122.387014 -4.080550 -1.773245
H 120.661855 -2.255082 -1.111734
C 216.437975 -0.020787 0.080523
C 215.704099 -1.392830 -0.027808
C 216.298169 -2.632729 0.035094
C 215.273084 -3.594760 -0.162384
C 214.088666 -2.908160 -0.349486
N 214.355877 -1.569291 -0.207605
C 212.668524 -3.527070 -0.689027
C 212.676790 -4.915187 -1.172821
C 212.986368 -5.164173 -2.463549
C 213.055299 -6.531304 -3.069047
N 212.608502 -7.566073 -2.139209
C 212.369852 -7.295108 -0.811824
C 212.375999 -6.053213 -0.312604
C 211.542524 -2.772741 -0.578290
C 210.243106 -3.299204 -0.939493
C 209.340269 -2.341234 -0.763862
N 211.344663 -1.478357 -0.174859
C 210.015646 -1.155805 -0.270947
C 209.349331 -0.002248 0.001152
C 210.127170 1.265694 0.555791
C 209.587319 2.290401 1.308327
C 210.613335 3.241987 1.533458
C 211.754671 2.767601 0.921355
N 211.461873 1.538314 0.377498
C 213.167892 3.486336 0.868206
C 213.158011 4.943527 1.050398
C 213.549554 5.471803 2.230774
C 213.620156 6.938912 2.519942
N 213.062455 7.742381 1.433017
C 212.758500 7.184686 0.210865
C 212.776605 5.865025 -0.012126
C 214.289258 2.752324 0.643814
C 215.609612 3.350787 0.559388
C 216.495780 2.380602 0.353090
C 215.774988 1.132740 0.286224
N 214.453902 1.408508 0.453954
H 217.515159 -0.010489 -0.032769
H 217.348620 -2.823095 0.191391
H 215.389360 -4.667642 -0.189640
H 213.660974 -0.826986 -0.223662
H 213.213589 -4.325166 -3.115847
H 214.087017 -6.740580 -3.373062
H 212.426746 -6.568866 -3.964865
H 212.910685 -8.509216 -2.346355
H 212.163909 -8.158489 -0.188973
H 212.168421 -5.846006 0.731790
H 210.039879 -4.292378 -1.299572
H 208.288864 -2.450041 -0.958438
H 208.564543 2.356668 1.647816
H 210.528439 4.172893 2.074122
H 212.144701 0.911177 -0.039532
H 213.858260 4.796709 3.025601
H 214.665133 7.224879 2.682463
H 213.064620 7.158921 3.437419
H 213.387319 8.700137 1.393305
H 212.495973 7.889651 -0.570285
H 212.525627 5.436329 -0.976810
H 215.833320 4.398780 0.643004
H 217.558480 2.498816 0.242925
C 130.887261 -0.002248 0.001152
C 132.109178 -0.002248 0.001152
C 141.633532 -0.002248 0.001152
C 142.855449 -0.002248 0.001152
C 152.379802 -0.002248 0.001152
C 153.601720 -0.002248 0.001152
C 163.126073 -0.002248 0.001152
C 164.347991 -0.002248 0.001152
C 173.872344 -0.002248 0.001152
C 175.094262 -0.002248 0.001152
C 184.618615 -0.002248 0.001152
C 185.840533 -0.002248 0.001152
C 195.364886 -0.002248 0.001152
C 196.586803 -0.002248 0.001152
C 206.111157 -0.002248 0.001152
C 207.333074 -0.002248 0.001152
C 133.259472 0.000742 -0.000380
C 134.035165 -0.146824 1.378717
C 133.461987 -0.127609 2.634577
C 134.502486 -0.267405 3.580721
C 135.688503 -0.366285 2.882276
N 135.395337 -0.286637 1.540712
C 137.128105 -0.513708 3.527775
C 137.151714 -0.763720 4.978299
C 137.090798 -2.035033 5.429791
C 137.150059 -2.422676 6.874508
N 137.113096 -1.257893 7.758287
C 137.284440 0.018592 7.271417
C 137.296933 0.301788 5.963292
C 138.254018 -0.404946 2.774705
C 139.566123 -0.483988 3.382669
C 140.478044 -0.323321 2.432712
N 138.450808 -0.213582 1.432904
C 139.795644 -0.159475 1.164273
C 140.478505 0.000742 -0.000380
C 139.701453 0.106036 -1.381212
C 140.267925 0.017467 -2.637248
C 139.227494 0.152397 -3.584424
C 138.049035 0.317132 -2.885394
N 138.344921 0.272727 -1.543260
C 136.613057 0.496542 -3.528449
C 136.593831 0.764929 -4.975509
C 136.698062 2.038485 -5.412561
C 136.646784 2.444554 -6.852419
N 136.641947 1.289542 -7.750011
C 136.426023 0.014479 -7.277012
C 136.407243 -0.283127 -5.972237
C 135.486547 0.400055 -2.774605
C 134.175415 0.515742 -3.378307
C 133.262459 0.361370 -2.428532
C 133.943688 0.163990 -1.163962
N 135.288602 0.194118 -1.434956
H 132.411961 -0.015972 2.856487
H 134.398176 -0.283659 4.655570
H 136.080067 -0.287107 0.788232
H 137.009555 -2.841479 4.705820
H 138.069359 -2.988768 7.059520
H 136.301730 -3.071180 7.116028
H 137.478357 -1.411438 8.689907
H 137.406259 0.791261 8.022709
H 137.426796 1.311577 5.588667
H 139.776173 -0.634495 4.426607
H 141.539288 -0.332523 2.600574
H 141.313447 -0.133942 -2.857218
H 139.326460 0.126027 -4.659838
H 137.662914 0.310204 -0.789450
H 136.810275 2.833288 -4.679875
H 135.745693 3.042386 -7.027384
H 137.514941 3.067974 -7.089825
H 136.276927 1.466790 -8.677445
H 136.272713 -0.744271 -8.036454
H 136.240536 -1.291483 -5.608728
H 133.966629 0.686206 -4.419451
H 132.201388 0.395905 -2.594145
C 144.005743 0.000742 -0.000380
C 144.781435 -0.146824 1.378717
C 144.208258 -0.127609 2.634577
C 145.248757 -0.267405 3.580721
C 146.434774 -0.366285 2.882276
N 146.141608 -0.286637 1.540712
C 147.874376 -0.513708 3.527775
C 147.897985 -0.763720 4.978299
C 147.837069 -2.035033 5.429791
C 147.896330 -2.422676 6.874508
N 147.859367 -1.257893 7.758287
C 148.030711 0.018592 7.271417
C 148.043203 0.301788 5.963292
C 149.000289 -0.404946 2.774705
C 150.312394 -0.483988 3.382669
C 151.224314 -0.323321 2.432712
N 149.197079 -0.213582 1.432904
C 150.541914 -0.159475 1.164273
C 151.224776 0.000742 -0.000380
C 150.447724 0.106036 -1.381212
C 151.014196 0.017467 -2.637248
C 149.973765 0.152397 -3.584424
C 148.795305 0.317132 -2.885394
N 149.091192 0.272727 -1.543260
C 147.359328 0.496542 -3.528449
C 147.340102 0.764929 -4.975509
C 147.444332 2.038485 -5.412561
C 147.393055 2.444554 -6.852419
N 147.388218 1.289542 -7.750011
C 147.172294 0.014479 -7.277012
C 147.153513 -0.283127 -5.972237
C 146.232818 0.400055 -2.774605
C 144.921686 0.515742 -3.378307
C 144.008730 0.361370 -2.428532
C 144.689959 0.163990 -1.163962
N 146.034873 0.194118 -1.434956
H 143.158232 -0.015972 2.856487
H 145.144447 -0.283659 4.655570
H 146.826337 -0.287107 0.788232
H 147.755826 -2.841479 4.705820
H 148.815630 -2.988768 7.059520
H 147.048001 -3.071180 7.116028
H 148.224628 -1.411438 8.689907
H 148.152530 0.791261 8.022709
H 148.173067 1.311577 5.588667
H 150.522444 -0.634495 4.426607
H 152.285558 -0.332523 2.600574
H 152.059717 -0.133942 -2.857218
H 150.072731 0.126027 -4.659838
H 148.409184 0.310204 -0.789450
H 147.556546 2.833288 -4.679875
H 146.491964 3.042386 -7.027384
H 148.261211 3.067974 -7.089825
H 147.023198 1.466790 -8.677445
H 147.018984 -0.744271 -8.036454
H 146.986807 -1.291483 -5.608728
H 144.712900 0.686206 -4.419451
H 142.947659 0.395905 -2.594145
C 154.752014 0.000742 -0.000380
C 155.527706 -0.146824 1.378717
C 154.954529 -0.127609 2.634577
C 155.995028 -0.267405 3.580721
C 157.181045 -0.366285 2.882276
N 156.887879 -0.286637 1.540712
C 158.620647 -0.513708 3.527775
C 158.644256 -0.763720 4.978299
C 158.583340 -2.035033 5.429791
C 158.642601 -2.422676 6.874508
N 158.605638 -1.257893 7.758287
C 158.776982 0.018592 7.271417
C 158.789474 0.301788 5.963292
C 159.746560 -0.404946 2.774705
C 161.058665 -0.483988 3.382669
C 161.970585 -0.323321 2.432712
N 159.943350 -0.213582 1.432904
C 161.288185 -0.159475 1.164273
C 161.971047 0.000742 -0.000380
C 161.193995 0.106036 -1.381212
C 161.760467 0.017467 -2.637248
C 160.720036 0.152397 -3.584424
C 159.541576 0.317132 -2.885394
N 159.837463 0.272727 -1.543260
C 158.105598 0.496542 -3.528449
C 158.086372 0.764929 -4.975509
C 158.190603 2.038485 -5.412561
C 158.139326 2.444554 -6.852419
N 158.134489 1.289542 -7.750011
C 157.918565 0.014479 -7.277012
C 157.899784 -0.283127 -5.972237
C 156.979089 0.400055 -2.774605
C 155.667957 0.515742 -3.378307
C 154.755001 0.361370 -2.428532
C 155.436230 0.163990 -1.163962
N 156.781144 0.194118 -1.434956
H 153.904503 -0.015972 2.856487
H 155.890718 -0.283659 4.655570
H 157.572608 -0.287107 0.788232
H 158.502097 -2.841479 4.705820
H 159.561901 -2.988768 7.059520
H 157.794272 -3.071180 7.116028
H 158.970899 -1.411438 8.689907
H 158.898801 0.791261 8.022709
H 158.919337 1.311577 5.588667
H 161.268715 -0.634495 4.426607
H 163.031829 -0.332523 2.600574
H 162.805988 -0.133942 -2.857218
H 160.819002 0.126027 -4.659838
H 159.155455 0.310204 -0.789450
H 158.302817 2.833288 -4.679875
H 157.238235 3.042386 -7.027384
H 159.007482 3.067974 -7.089825
H 157.769469 1.466790 -8.677445
H 157.765255 -0.744271 -8.036454
H 157.733078 -1.291483 -5.608728
H 155.459171 0.686206 -4.419451
H 153.693930 0.395905 -2.594145
C 165.498285 0.000742 -0.000380
C 166.273977 -0.146824 1.378717
C 165.700800 -0.127609 2.634577
C 166.741298 -0.267405 3.580721
C 167.927316 -0.366285 2.882276
N 167.634149 -0.286637 1.540712
C 169.366918 -0.513708 3.527775
C 169.390526 -0.763720 4.978299
C 169.329611 -2.035033 5.429791
C 169.388872 -2.422676 6.874508
N 169.351909 -1.257893 7.758287
C 169.523253 0.018592 7.271417
C 169.535745 0.301788 5.963292
C 170.492831 -0.404946 2.774705
C 171.804936 -0.483988 3.382669
C 172.716856 -0.323321 2.432712
N 170.689621 -0.213582 1.432904
C 172.034456 -0.159475 1.164273
C 172.717317 0.000742 -0.000380
C 171.940266 0.106036 -1.381212
C 172.506738 0.017467 -2.637248
C 171.466307 0.152397 -3.584424
C 170.287847 0.317132 -2.885394
N 170.583733 0.272727 -1.543260
C 168.851869 0.496542 -3.528449
C 168.832643 0.764929 -4.975509
C 168.936874 2.038485 -5.412561
C 168.885597 2.444554 -6.852419
N 168.880760 1.289542 -7.750011
C 168.664835 0.014479 -7.277012
C 168.646055 -0.283127 -5.972237
C 167.725359 0.400055 -2.774605
C 166.414227 0.515742 -3.378307
C 165.501272 0.361370 -2.428532
C 166.182501 0.163990 -1.163962
N 167.527415 0.194118 -1.434956
H 164.650774 -0.015972 2.856487
H 166.636989 -0.283659 4.655570
H 168.318879 -0.287107 0.788232
H 169.248368 -2.841479 4.705820
H 170.308172 -2.988768 7.059520
H 168.540543 -3.071180 7.116028
H 169.717170 -1.411438 8.689907
H 169.645071 0.791261 8.022709
H 169.665608 1.311577 5.588667
H 172.014986 -0.634495 4.426607
H 173.778100 -0.332523 2.600574
H 173.552259 -0.133942 -2.857218
H 171.565273 0.126027 -4.659838
H 169.901726 0.310204 -0.789450
H 169.049087 2.833288 -4.679875
H 167.984506 3.042386 -7.027384
H 169.753753 3.067974 -7.089825
H 168.515740 1.466790 -8.677445
H 168.511526 -0.744271 -8.036454
H 168.479349 -1.291483 -5.608728
H 166.205441 0.686206 -4.419451
H 164.440201 0.395905 -2.594145
C 176.244555 0.000742 -0.000380
C 177.020248 -0.146824 1.378717
C 176.447071 -0.127609 2.634577
C 177.487569 -0.267405 3.580721
C 178.673587 -0.366285 2.882276
N 178.380420 -0.286637 1.540712
C 180.113189 -0.513708 3.527775
C 180.136797 -0.763720 4.978299
C 180.075882 -2.035033 5.429791
C 180.135143 -2.422676 6.874508
N 180.098179 -1.257893 7.758287
C 180.269523 0.018592 7.271417
C 180.282016 0.301788 5.963292
C 181.239102 -0.404946 2.774705
C 182.551207 -0.483988 3.382669
C 183.463127 -0.323321 2.432712
N 181.435892 -0.213582 1.432904
C 182.780727 -0.159475 1.164273
C 183.463588 0.000742 -0.000380
C 182.686536 0.106036 -1.381212
C 183.253008 0.017467 -2.637248
C 182.212578 0.152397 -3.584424
C 181.034118 0.317132 -2.885394
N 181.330004 0.272727 -1.543260
C 179.598140 0.496542 -3.528449
C 179.578914 0.764929 -4.975509
C 179.683145 2.038485 -5.412561
C 179.631868 2.444554 -6.852419
N 179.627030 1.289542 -7.750011
C 179.411106 0.014479 -7.277012
C 179.392326 -0.283127 -5.972237
C 178.471630 0.400055 -2.774605
C 177.160498 0.515742 -3.378307
C 176.247543 0.361370 -2.428532
C 176.928771 0.163990 -1.163962
N 178.273685 0.194118 -1.434956
H 175.397045 -0.015972 2.856487
H 177.383260 -0.283659 4.655570
H 179.065150 -0.287107 0.788232
H 179.994639 -2.841479 4.705820
H 181.054443 -2.988768 7.059520
H 179.286814 -3.071180 7.116028
H 180.463440 -1.411438 8.689907
H 180.391342 0.791261 8.022709
H 180.411879 1.311577 5.588667
H 182.761256 -0.634495 4.426607
H 184.524371 -0.332523 2.600574
H 184.298530 -0.133942 -2.857218
H 182.311543 0.126027 -4.659838
H 180.647997 0.310204 -0.789450
H 179.795358 2.833288 -4.679875
H 178.730777 3.042386 -7.027384
H 180.500024 3.067974 -7.089825
H 179.262010 1.466790 -8.677445
H 179.257796 -0.744271 -8.036454
H 179.225620 -1.291483 -5.608728
H 176.951712 0.686206 -4.419451
H 175.186471 0.395905 -2.594145
C 186.990826 0.000742 -0.000380
C 187.766519 -0.146824 1.378717
C 187.193342 -0.127609 2.634577
C 188.233840 -0.267405 3.580721
C 189.419857 -0.366285 2.882276
N 189.126691 -0.286637 1.540712
C 190.859460 -0.513708 3.527775
C 190.883068 -0.763720 4.978299
C 190.822152 -2.035033 5.429791
C 190.881413 -2.422676 6.874508
N 190.844450 -1.257893 7.758287
C 191.015794 0.018592 7.271417
C 191.028287 0.301788 5.963292
C 191.985372 -0.404946 2.774705
C 193.297478 -0.483988 3.382669
C 194.209398 -0.323321 2.432712
N 192.182163 -0.213582 1.432904
C 193.526998 -0.159475 1.164273
C 194.209859 0.000742 -0.000380
C 193.432807 0.106036 -1.381212
C 193.999279 0.017467 -2.637248
C 192.958849 0.152397 -3.584424
C 191.780389 0.317132 -2.885394
N 192.076275 0.272727 -1.543260
C 190.344411 0.496542 -3.528449
C 190.325185 0.764929 -4.975509
C 190.429416 2.038485 -5.412561
C 190.378138 2.444554 -6.852419
N 190.373301 1.289542 -7.750011
C 190.157377 0.014479 -7.277012
C 190.138597 -0.283127 -5.972237
C 189.217901 0.400055 -2.774605
C 187.906769 0.515742 -3.378307
C 186.993813 0.361370 -2.428532
C 187.675042 0.163990 -1.163962
N 189.019956 0.194118 -1.434956
H 186.143316 -0.015972 2.856487
H 188.129531 -0.283659 4.655570
H 189.811421 -0.287107 0.788232
H 190.740910 -2.841479 4.705820
H 191.800714 -2.988768 7.059520
H 190.033084 -3.071180 7.116028
H 191.209711 -1.411438 8.689907
H 191.137613 0.791261 8.022709
H 191.158150 1.311577 5.588667
H 193.507527 -0.634495 4.426607
H 195.270642 -0.332523 2.600574
H 195.044801 -0.133942 -2.857218
H 193.057814 0.126027 -4.659838
H 191.394268 0.310204 -0.789450
H 190.541629 2.833288 -4.679875
H 189.477047 3.042386 -7.027384
H 191.246295 3.067974 -7.089825
H 190.008281 1.466790 -8.677445
H 190.004067 -0.744271 -8.036454
H 189.971890 -1.291483 -5.608728
H 187.697983 0.686206 -4.419451
H 185.932742 0.395905 -2.594145
C 197.737097 0.000742 -0.000380
C 198.512790 -0.146824 1.378717
C 197.939612 -0.127609 2.634577
C 198.980111 -0.267405 3.580721
C 200.166128 -0.366285 2.882276
N 199.872962 -0.286637 1.540712
C 201.605730 -0.513708 3.527775
C 201.629339 -0.763720 4.978299
C 201.568423 -2.035033 5.429791
C 201.627684 -2.422676 6.874508
N 201.590721 -1.257893 7.758287
C 201.762065 0.018592 7.271417
C 201.774558 0.301788 5.963292
C 202.731643 -0.404946 2.774705
C 204.043748 -0.483988 3.382669
C 204.955669 -0.323321 2.432712
N 202.928433 -0.213582 1.432904
C 204.273268 -0.159475 1.164273
C 204.956130 0.000742 -0.000380
C 204.179078 0.106036 -1.381212
C 204.745550 0.017467 -2.637248
C 203.705119 0.152397 -3.584424
C 202.526660 0.317132 -2.885394
N 202.822546 0.272727 -1.543260
C 201.090682 0.496542 -3.528449
C 201.071456 0.764929 -4.975509
C 201.175687 2.038485 -5.412561
C 201.124409 2.444554 -6.852419
N 201.119572 1.289542 -7.750011
C 200.903648 0.014479 -7.277012
C 200.884868 -0.283127 -5.972237
C 199.964172 0.400055 -2.774605
C 198.653040 0.515742 -3.378307
C 197.740084 0.361370 -2.428532
C 198.421313 0.163990 -1.163962
N 199.766227 0.194118 -1.434956
H 196.889586 -0.015972 2.856487
H 198.875801 -0.283659 4.655570
H 200.557692 -0.287107 0.788232
H 201.487180 -2.841479 4.705820
H 202.546984 -2.988768 7.059520
H 200.779355 -3.071180 7.116028
H 201.955982 -1.411438 8.689907
H 201.883884 0.791261 8.022709
H 201.904421 1.311577 5.588667
H 204.253798 -0.634495 4.426607
H 206.016913 -0.332523 2.600574
H 205.791072 -0.133942 -2.857218
H 203.804085 0.126027 -4.659838
H 202.140539 0.310204 -0.789450
H 201.287900 2.833288 -4.679875
H 200.223318 3.042386 -7.027384
H 201.992566 3.067974 -7.089825
H 200.754552 1.466790 -8.677445
H 200.750338 -0.744271 -8.036454
H 200.718161 -1.291483 -5.608728
H 198.444254 0.686206 -4.419451
H 196.679013 0.395905 -2.594145
