370

C 71.082602 0.015867 0.060083
C 71.807470 1.209194 -0.634295
C 71.192665 2.234549 -1.316020
C 72.213679 3.126499 -1.734403
C 73.418079 2.617903 -1.288298
N 73.161877 1.425141 -0.659288
C 74.844688 3.292316 -1.442658
C 74.890459 4.690120 -1.933157
C 75.156123 4.949575 -3.284440
C 75.191904 6.262130 -3.757921
C 74.958103 7.313409 -2.873892
O 74.985755 8.610741 -3.301369
C 74.690520 7.073245 -1.530308
C 74.656596 5.759149 -1.059074
C 75.974496 2.611490 -1.109305
C 77.283507 3.228704 -1.173495
C 78.185663 2.341950 -0.770224
N 76.167798 1.330679 -0.662275
C 77.502144 1.106445 -0.441196
C 78.170128 0.005402 -0.004501
C 77.390038 -1.340478 0.311626
C 77.927077 -2.613135 0.306812
C 76.902285 -3.511697 0.693942
C 75.764623 -2.764708 0.913147
N 76.058031 -1.451186 0.630198
C 74.355843 -3.321036 1.385348
C 74.322153 -4.634454 2.067401
C 74.700864 -4.745580 3.410835
C 74.681166 -5.988627 4.047198
C 74.284280 -7.116722 3.337153
O 74.275049 -8.316659 3.990292
C 73.907105 -7.025808 1.999079
C 73.928878 -5.782202 1.365580
C 73.232176 -2.591930 1.158259
C 71.911951 -3.032857 1.573327
C 71.027135 -2.114609 1.196682
C 71.747575 -1.051798 0.539512
N 73.067492 -1.378866 0.549509
H 70.005961 0.070581 0.168149
H 70.130968 2.337755 -1.478987
H 72.081591 4.049183 -2.279129
H 73.865900 0.803351 -0.268824
H 75.338678 4.112460 -3.955267
H 75.402808 6.433640 -4.806912
H 75.203233 8.596748 -4.246793
H 74.510599 7.897237 -0.848609
H 74.451159 5.552263 -0.011217
H 77.498427 4.237568 -1.477618
H 79.241820 2.530593 -0.709641
H 78.946935 -2.869970 0.064189
H 76.985996 -4.582276 0.804799
H 75.377401 -0.696037 0.608052
H 75.008167 -3.853137 3.951300
H 74.973789 -6.067819 5.088437
H 73.965793 -8.984894 3.358630
H 73.595124 -7.895437 1.432822
H 73.636712 -5.686276 0.321683
H 71.683884 -3.941950 2.099910
H 69.965204 -2.146989 1.359584
C 149.474986 0.054055 0.039243
C 148.750118 -1.175564 0.667118
C 149.364924 -2.303660 1.160576
C 148.343909 -3.138109 1.684326
C 147.139509 -2.487762 1.497971
N 147.395711 -1.313422 0.835203
C 145.712900 -2.982472 1.981626
C 145.667129 -4.151265 2.891773
C 145.401466 -5.428056 2.378851
C 145.365684 -6.536412 3.226513
C 145.599485 -6.361757 4.588934
O 145.571833 -7.423188 5.448684
C 145.867068 -5.101879 5.113913
C 145.900993 -3.994577 4.263740
C 144.583092 -2.333761 1.589423
C 143.274081 -2.721692 2.073762
C 142.371926 -1.902763 1.546205
N 144.389791 -1.264825 0.754146
C 143.055444 -0.957577 0.685184
C 142.387461 0.005402 -0.004501
C 143.167550 0.999458 -0.965326
C 142.630511 1.683987 -2.038218
C 143.655303 2.495732 -2.584438
C 144.792965 2.275917 -1.837628
N 144.499557 1.327272 -0.886065
C 146.201745 2.974036 -2.050006
C 146.235435 4.258266 -2.785544
C 145.856724 5.448201 -2.152127
C 145.876422 6.655932 -2.853204
C 146.273308 6.669157 -4.186091
O 146.282539 7.867670 -4.841838
C 146.650483 5.494664 -4.833606
C 146.628710 4.289040 -4.130509
C 147.325412 2.388571 -1.559705
C 148.645637 2.976203 -1.705944
C 149.530453 2.162626 -1.137496
C 148.810013 1.034915 -0.599251
N 147.490096 1.220284 -0.868902
H 150.551628 0.115334 0.143727
H 150.426620 -2.496553 1.159197
H 148.475997 -4.095440 2.165563
H 146.691688 -0.648624 0.523549
H 145.218911 -5.539286 1.311894
H 145.154780 -7.511396 2.803188
H 145.354355 -8.210706 4.925389
H 146.046989 -4.974404 6.175716
H 146.106429 -3.001407 4.656701
H 143.059161 -3.523307 2.757655
H 141.315768 -1.953880 1.737630
H 141.610653 1.618907 -2.385486
H 143.571592 3.168204 -3.424801
H 145.180187 0.900070 -0.262977
H 145.549421 5.419864 -1.109172
H 145.583799 7.574448 -2.356435
H 146.591796 7.698004 -5.745579
H 146.962464 5.488967 -5.871329
H 146.920877 3.359235 -4.614643
H 148.873704 3.910923 -2.185568
H 150.592384 2.317144 -1.076587
C 81.850823 0.018134 -0.001976
C 80.598553 -0.001047 -0.006325
C 83.164492 0.017368 -0.000044
C 84.667625 -0.001047 -0.006325
C 95.695193 0.018134 -0.001976
C 94.442923 -0.001047 -0.006325
C 97.008862 0.017368 -0.000044
C 98.511995 -0.001047 -0.006325
C 109.539563 0.018134 -0.001976
C 108.287293 -0.001047 -0.006325
C 110.853231 0.017368 -0.000044
C 112.356365 -0.001047 -0.006325
C 123.383933 0.018134 -0.001976
C 122.131663 -0.001047 -0.006325
C 124.697601 0.017368 -0.000044
C 126.200735 -0.001047 -0.006325
C 137.228303 0.018134 -0.001976
C 135.976033 -0.001047 -0.006325
C 138.541971 0.017368 -0.000044
C 140.045105 -0.001047 -0.006325
C 85.944860 -0.002658 0.002835
C 86.749002 -1.034229 -0.902482
C 86.238231 -1.765436 -1.959761
C 87.274071 -2.582730 -2.456554
C 88.394014 -2.328791 -1.684777
N 88.082984 -1.331868 -0.793554
C 89.797332 -3.063179 -1.819319
C 89.799869 -4.407261 -2.437488
C 90.272486 -4.580078 -3.746620
C 90.277418 -5.844101 -4.336566
C 89.797798 -6.932501 -3.611669
O 89.781381 -8.185324 -4.157625
C 89.306755 -6.779480 -2.320862
C 89.307725 -5.514079 -1.733950
C 90.927125 -2.462655 -1.368735
C 92.220697 -3.110418 -1.436064
C 93.133133 -2.273531 -0.944672
N 91.129108 -1.242756 -0.796247
C 92.459688 -1.058865 -0.535987
C 93.115607 -0.002658 0.002835
C 92.315597 1.302640 0.433630
C 92.860567 2.554420 0.636323
C 91.839351 3.386796 1.135306
C 90.677997 2.638409 1.171886
N 90.975478 1.376250 0.718923
C 89.262201 3.137017 1.707301
C 89.232477 4.354092 2.552155
C 89.380804 5.614308 1.960896
C 89.341032 6.772913 2.741891
C 89.115444 6.667442 4.112876
O 89.020949 7.815104 4.845294
C 88.972556 5.420457 4.721836
C 89.043771 4.263998 3.938915
C 88.124958 2.448652 1.395123
C 86.825488 2.866205 1.879215
C 85.919284 1.994912 1.433311
C 86.597137 1.013397 0.618575
N 87.926374 1.344759 0.630747
H 85.223928 -1.723135 -2.322228
H 87.215386 -3.295686 -3.271674
H 88.747424 -0.870440 -0.176169
H 90.642078 -3.713769 -4.295866
H 90.670328 -5.948326 -5.335287
H 90.082556 -8.100552 -5.076222
H 88.919556 -7.632481 -1.781409
H 88.924215 -5.370646 -0.725840
H 92.429158 -4.100099 -1.809991
H 94.182371 -2.488891 -0.865246
H 93.894314 2.828480 0.492242
H 91.945270 4.415417 1.457224
H 90.302901 0.626539 0.606842
H 89.528952 5.678733 0.884911
H 89.466388 7.747525 2.287682
H 88.408694 7.618440 5.581906
H 88.806892 5.327825 5.787070
H 88.928760 3.281889 4.387406
H 86.609355 3.724724 2.490294
H 84.863296 2.052414 1.631757
C 99.789230 -0.002658 0.002835
C 100.593372 -1.034229 -0.902482
C 100.082601 -1.765436 -1.959761
C 101.118441 -2.582730 -2.456554
C 102.238384 -2.328791 -1.684777
N 101.927354 -1.331868 -0.793554
C 103.641702 -3.063179 -1.819319
C 103.644239 -4.407261 -2.437488
C 104.116856 -4.580078 -3.746620
C 104.121788 -5.844101 -4.336566
C 103.642168 -6.932501 -3.611669
O 103.625751 -8.185324 -4.157625
C 103.151125 -6.779480 -2.320862
C 103.152094 -5.514079 -1.733950
C 104.771495 -2.462655 -1.368735
C 106.065067 -3.110418 -1.436064
C 106.977503 -2.273531 -0.944672
N 104.973478 -1.242756 -0.796247
C 106.304058 -1.058865 -0.535987
C 106.959977 -0.002658 0.002835
C 106.159967 1.302640 0.433630
C 106.704937 2.554420 0.636323
C 105.683721 3.386796 1.135306
C 104.522367 2.638409 1.171886
N 104.819848 1.376250 0.718923
C 103.106571 3.137017 1.707301
C 103.076847 4.354092 2.552155
C 103.225174 5.614308 1.960896
C 103.185401 6.772913 2.741891
C 102.959814 6.667442 4.112876
O 102.865319 7.815104 4.845294
C 102.816926 5.420457 4.721836
C 102.888141 4.263998 3.938915
C 101.969328 2.448652 1.395123
C 100.669858 2.866205 1.879215
C 99.763654 1.994912 1.433311
C 100.441507 1.013397 0.618575
N 101.770744 1.344759 0.630747
H 99.068298 -1.723135 -2.322228
H 101.059756 -3.295686 -3.271674
H 102.591794 -0.870440 -0.176169
H 104.486448 -3.713769 -4.295866
H 104.514698 -5.948326 -5.335287
H 103.926926 -8.100552 -5.076222
H 102.763926 -7.632481 -1.781409
H 102.768585 -5.370646 -0.725840
H 106.273528 -4.100099 -1.809991
H 108.026741 -2.488891 -0.865246
H 107.738684 2.828480 0.492242
H 105.789640 4.415417 1.457224
H 104.147271 0.626539 0.606842
H 103.373322 5.678733 0.884911
H 103.310758 7.747525 2.287682
H 102.253064 7.618440 5.581906
H 102.651262 5.327825 5.787070
H 102.773130 3.281889 4.387406
H 100.453725 3.724724 2.490294
H 98.707666 2.052414 1.631757
C 113.633600 -0.002658 0.002835
C 114.437742 -1.034229 -0.902482
C 113.926971 -1.765436 -1.959761
C 114.962811 -2.582730 -2.456554
C 116.082754 -2.328791 -1.684777
N 115.771724 -1.331868 -0.793554
C 117.486072 -3.063179 -1.819319
C 117.488609 -4.407261 -2.437488
C 117.961226 -4.580078 -3.746620
C 117.966158 -5.844101 -4.336566
C 117.486538 -6.932501 -3.611669
O 117.470121 -8.185324 -4.157625
C 116.995494 -6.779480 -2.320862
C 116.996464 -5.514079 -1.733950
C 118.615865 -2.462655 -1.368735
C 119.909437 -3.110418 -1.436064
C 120.821873 -2.273531 -0.944672
N 118.817848 -1.242756 -0.796247
C 120.148428 -1.058865 -0.535987
C 120.804347 -0.002658 0.002835
C 120.004337 1.302640 0.433630
C 120.549307 2.554420 0.636323
C 119.528091 3.386796 1.135306
C 118.366737 2.638409 1.171886
N 118.664218 1.376250 0.718923
C 116.950941 3.137017 1.707301
C 116.921216 4.354092 2.552155
C 117.069544 5.614308 1.960896
C 117.029771 6.772913 2.741891
C 116.804184 6.667442 4.112876
O 116.709689 7.815104 4.845294
C 116.661296 5.420457 4.721836
C 116.732511 4.263998 3.938915
C 115.813698 2.448652 1.395123
C 114.514228 2.866205 1.879215
C 113.608024 1.994912 1.433311
C 114.285877 1.013397 0.618575
N 115.615113 1.344759 0.630747
H 112.912668 -1.723135 -2.322228
H 114.904126 -3.295686 -3.271674
H 116.436164 -0.870440 -0.176169
H 118.330818 -3.713769 -4.295866
H 118.359068 -5.948326 -5.335287
H 117.771296 -8.100552 -5.076222
H 116.608296 -7.632481 -1.781409
H 116.612955 -5.370646 -0.725840
H 120.117898 -4.100099 -1.809991
H 121.871111 -2.488891 -0.865246
H 121.583054 2.828480 0.492242
H 119.634010 4.415417 1.457224
H 117.991641 0.626539 0.606842
H 117.217692 5.678733 0.884911
H 117.155128 7.747525 2.287682
H 116.097434 7.618440 5.581906
H 116.495632 5.327825 5.787070
H 116.617500 3.281889 4.387406
H 114.298095 3.724724 2.490294
H 112.552036 2.052414 1.631757
C 127.477970 -0.002658 0.002835
C 128.282112 -1.034229 -0.902482
C 127.771341 -1.765436 -1.959761
C 128.807181 -2.582730 -2.456554
C 129.927124 -2.328791 -1.684777
N 129.616094 -1.331868 -0.793554
C 131.330442 -3.063179 -1.819319
C 131.332979 -4.407261 -2.437488
C 131.805596 -4.580078 -3.746620
C 131.810528 -5.844101 -4.336566
C 131.330908 -6.932501 -3.611669
O 131.314491 -8.185324 -4.157625
C 130.839864 -6.779480 -2.320862
C 130.840834 -5.514079 -1.733950
C 132.460235 -2.462655 -1.368735
C 133.753807 -3.110418 -1.436064
C 134.666243 -2.273531 -0.944672
N 132.662218 -1.242756 -0.796247
C 133.992798 -1.058865 -0.535987
C 134.648717 -0.002658 0.002835
C 133.848707 1.302640 0.433630
C 134.393677 2.554420 0.636323
C 133.372461 3.386796 1.135306
C 132.211107 2.638409 1.171886
N 132.508588 1.376250 0.718923
C 130.795311 3.137017 1.707301
C 130.765586 4.354092 2.552155
C 130.913914 5.614308 1.960896
C 130.874141 6.772913 2.741891
C 130.648554 6.667442 4.112876
O 130.554059 7.815104 4.845294
C 130.505666 5.420457 4.721836
C 130.576881 4.263998 3.938915
C 129.658068 2.448652 1.395123
C 128.358598 2.866205 1.879215
C 127.452394 1.994912 1.433311
C 128.130247 1.013397 0.618575
N 129.459483 1.344759 0.630747
H 126.757038 -1.723135 -2.322228
H 128.748495 -3.295686 -3.271674
H 130.280534 -0.870440 -0.176169
H 132.175188 -3.713769 -4.295866
H 132.203438 -5.948326 -5.335287
H 131.615665 -8.100552 -5.076222
H 130.452665 -7.632481 -1.781409
H 130.457325 -5.370646 -0.725840
H 133.962268 -4.100099 -1.809991
H 135.715481 -2.488891 -0.865246
H 135.427423 2.828480 0.492242
H 133.478379 4.415417 1.457224
H 131.836011 0.626539 0.606842
H 131.062062 5.678733 0.884911
H 130.999498 7.747525 2.287682
H 129.941804 7.618440 5.581906
H 130.340002 5.327825 5.787070
H 130.461869 3.281889 4.387406
H 128.142465 3.724724 2.490294
H 126.396406 2.052414 1.631757
