 xtb: 6.5.1 (b24c23e)
          07292223133D

177206  0     0  0            999 V2000
   19.6705   -0.0142   -0.0033 Co  0  0  0  0  0  0  0  0  0  0  0  0
   16.2991   -0.0519   -0.0010 C   0  0  0  0  0  0  0  0  0  0  0  0
   16.9677   -1.2486   -0.1451 C   0  0  0  0  0  0  0  0  0  0  0  0
   16.3163   -2.5142   -0.2965 C   0  0  0  0  0  0  0  0  0  0  0  0
   17.2786   -3.4608   -0.1970 C   0  0  0  0  0  0  0  0  0  0  0  0
   18.5189   -2.7722    0.0124 C   0  0  0  0  0  0  0  0  0  0  0  0
   18.3232   -1.4146   -0.0095 N   0  0  0  0  0  0  0  0  0  0  0  0
   19.7036   -3.3958    0.3794 C   0  0  0  0  0  0  0  0  0  0  0  0
   19.7158   -4.8679    0.5481 C   0  0  0  0  0  0  0  0  0  0  0  0
   19.9105   -5.4509    1.7990 C   0  0  0  0  0  0  0  0  0  0  0  0
   19.9102   -6.8329    1.9062 C   0  0  0  0  0  0  0  0  0  0  0  0
   19.7360   -7.6400    0.8648 N   0  0  0  0  0  0  0  0  0  0  0  0
   19.5519   -7.0911   -0.3315 C   0  0  0  0  0  0  0  0  0  0  0  0
   19.5314   -5.7207   -0.5388 C   0  0  0  0  0  0  0  0  0  0  0  0
   20.8729   -2.6841    0.5984 C   0  0  0  0  0  0  0  0  0  0  0  0
   22.1203   -3.2819    0.9696 C   0  0  0  0  0  0  0  0  0  0  0  0
   23.0641   -2.3161    0.8640 C   0  0  0  0  0  0  0  0  0  0  0  0
   21.0484   -1.3487    0.3128 N   0  0  0  0  0  0  0  0  0  0  0  0
   22.3933   -1.1340    0.4232 C   0  0  0  0  0  0  0  0  0  0  0  0
   23.0613    0.0202    0.0050 C   0  0  0  0  0  0  0  0  0  0  0  0
   22.3706    1.1610   -0.4121 C   0  0  0  0  0  0  0  0  0  0  0  0
   23.0136    2.3470   -0.8821 C   0  0  0  0  0  0  0  0  0  0  0  0
   22.0499    3.2927   -0.9950 C   0  0  0  0  0  0  0  0  0  0  0  0
   20.8219    2.6824   -0.5824 C   0  0  0  0  0  0  0  0  0  0  0  0
   21.0228    1.3524   -0.2909 N   0  0  0  0  0  0  0  0  0  0  0  0
   19.6320    3.3694   -0.3942 C   0  0  0  0  0  0  0  0  0  0  0  0
   19.6122    4.8379   -0.5715 C   0  0  0  0  0  0  0  0  0  0  0  0
   18.7731    5.4423   -1.5072 C   0  0  0  0  0  0  0  0  0  0  0  0
   18.7905    6.8218   -1.6391 C   0  0  0  0  0  0  0  0  0  0  0  0
   19.5712    7.6096   -0.9066 N   0  0  0  0  0  0  0  0  0  0  0  0
   20.3721    7.0420   -0.0105 C   0  0  0  0  0  0  0  0  0  0  0  0
   20.4303    5.6719    0.1901 C   0  0  0  0  0  0  0  0  0  0  0  0
   18.4562    2.7161   -0.0481 C   0  0  0  0  0  0  0  0  0  0  0  0
   17.2099    3.3767    0.2091 C   0  0  0  0  0  0  0  0  0  0  0  0
   16.2687    2.4093    0.3154 C   0  0  0  0  0  0  0  0  0  0  0  0
   16.9425    1.1594    0.1355 C   0  0  0  0  0  0  0  0  0  0  0  0
   18.2920    1.3550   -0.0214 N   0  0  0  0  0  0  0  0  0  0  0  0
   15.2156   -0.0643    0.0072 H   0  0  0  0  0  0  0  0  0  0  0  0
   15.2551   -2.6414   -0.4398 H   0  0  0  0  0  0  0  0  0  0  0  0
   17.1694   -4.5324   -0.2363 H   0  0  0  0  0  0  0  0  0  0  0  0
   20.0452   -4.8313    2.6775 H   0  0  0  0  0  0  0  0  0  0  0  0
   20.0553   -7.3114    2.8703 H   0  0  0  0  0  0  0  0  0  0  0  0
   19.4152   -7.7768   -1.1626 H   0  0  0  0  0  0  0  0  0  0  0  0
   19.3886   -5.3172   -1.5341 H   0  0  0  0  0  0  0  0  0  0  0  0
   22.2495   -4.3142    1.2509 H   0  0  0  0  0  0  0  0  0  0  0  0
   24.1247   -2.3865    1.0442 H   0  0  0  0  0  0  0  0  0  0  0  0
   24.0689    2.4309   -1.0860 H   0  0  0  0  0  0  0  0  0  0  0  0
   22.1504    4.3139   -1.3245 H   0  0  0  0  0  0  0  0  0  0  0  0
   18.1284    4.8389   -2.1350 H   0  0  0  0  0  0  0  0  0  0  0  0
   18.1492    7.3147   -2.3639 H   0  0  0  0  0  0  0  0  0  0  0  0
   20.9963    7.7120    0.5734 H   0  0  0  0  0  0  0  0  0  0  0  0
   21.0902    5.2545    0.9413 H   0  0  0  0  0  0  0  0  0  0  0  0
   17.0852    4.4441    0.2925 H   0  0  0  0  0  0  0  0  0  0  0  0
   15.2098    2.5125    0.4916 H   0  0  0  0  0  0  0  0  0  0  0  0
   56.7152    0.0299    0.0045 Co  0  0  0  0  0  0  0  0  0  0  0  0
   60.0905    0.0577    0.0085 C   0  0  0  0  0  0  0  0  0  0  0  0
   59.4276    1.1626   -0.4807 C   0  0  0  0  0  0  0  0  0  0  0  0
   60.0880    2.3259   -0.9897 C   0  0  0  0  0  0  0  0  0  0  0  0
   59.1293    3.2596   -1.1909 C   0  0  0  0  0  0  0  0  0  0  0  0
   57.8827    2.6641   -0.8065 C   0  0  0  0  0  0  0  0  0  0  0  0
   58.0713    1.3621   -0.4182 N   0  0  0  0  0  0  0  0  0  0  0  0
   56.6947    3.3694   -0.6720 C   0  0  0  0  0  0  0  0  0  0  0  0
   56.6895    4.8229   -0.9607 C   0  0  0  0  0  0  0  0  0  0  0  0
   56.4786    5.7592    0.0499 C   0  0  0  0  0  0  0  0  0  0  0  0
   56.4886    7.1083   -0.2681 C   0  0  0  0  0  0  0  0  0  0  0  0
   56.6870    7.5599   -1.5022 N   0  0  0  0  0  0  0  0  0  0  0  0
   56.8861    6.6727   -2.4715 C   0  0  0  0  0  0  0  0  0  0  0  0
   56.8987    5.3041   -2.2519 C   0  0  0  0  0  0  0  0  0  0  0  0
   55.5174    2.7601   -0.2679 C   0  0  0  0  0  0  0  0  0  0  0  0
   54.2686    3.4467   -0.1259 C   0  0  0  0  0  0  0  0  0  0  0  0
   53.3213    2.4990    0.0700 C   0  0  0  0  0  0  0  0  0  0  0  0
   55.3386    1.4030   -0.1182 N   0  0  0  0  0  0  0  0  0  0  0  0
   53.9917    1.2376    0.0412 C   0  0  0  0  0  0  0  0  0  0  0  0
   53.3200    0.0122    0.0316 C   0  0  0  0  0  0  0  0  0  0  0  0
   54.0050   -1.2054    0.0102 C   0  0  0  0  0  0  0  0  0  0  0  0
   53.3523   -2.4747   -0.0515 C   0  0  0  0  0  0  0  0  0  0  0  0
   54.3142   -3.4142    0.1135 C   0  0  0  0  0  0  0  0  0  0  0  0
   55.5503   -2.7128    0.2890 C   0  0  0  0  0  0  0  0  0  0  0  0
   55.3547   -1.3562    0.1604 N   0  0  0  0  0  0  0  0  0  0  0  0
   56.7443   -3.3188    0.6481 C   0  0  0  0  0  0  0  0  0  0  0  0
   56.7628   -4.7746    0.9125 C   0  0  0  0  0  0  0  0  0  0  0  0
   57.5714   -5.6333    0.1684 C   0  0  0  0  0  0  0  0  0  0  0  0
   57.5544   -6.9902    0.4496 C   0  0  0  0  0  0  0  0  0  0  0  0
   56.8025   -7.5219    1.4080 N   0  0  0  0  0  0  0  0  0  0  0  0
   56.0314   -6.7100    2.1241 C   0  0  0  0  0  0  0  0  0  0  0  0
   55.9750   -5.3413    1.9139 C   0  0  0  0  0  0  0  0  0  0  0  0
   57.9264   -2.5994    0.7653 C   0  0  0  0  0  0  0  0  0  0  0  0
   59.1736   -3.1640    1.1910 C   0  0  0  0  0  0  0  0  0  0  0  0
   60.1167   -2.2099    1.0106 C   0  0  0  0  0  0  0  0  0  0  0  0
   59.4432   -1.0620    0.4840 C   0  0  0  0  0  0  0  0  0  0  0  0
   58.0926   -1.2898    0.3950 N   0  0  0  0  0  0  0  0  0  0  0  0
   61.1740    0.0697    0.0182 H   0  0  0  0  0  0  0  0  0  0  0  0
   61.1519    2.4039   -1.1479 H   0  0  0  0  0  0  0  0  0  0  0  0
   59.2442    4.2711   -1.5451 H   0  0  0  0  0  0  0  0  0  0  0  0
   56.3241    5.4364    1.0725 H   0  0  0  0  0  0  0  0  0  0  0  0
   56.3317    7.8578    0.5021 H   0  0  0  0  0  0  0  0  0  0  0  0
   57.0425    7.0728   -3.4690 H   0  0  0  0  0  0  0  0  0  0  0  0
   57.0550    4.6167   -3.0746 H   0  0  0  0  0  0  0  0  0  0  0  0
   54.1418    4.5150   -0.1913 H   0  0  0  0  0  0  0  0  0  0  0  0
   52.2590    2.6242    0.2047 H   0  0  0  0  0  0  0  0  0  0  0  0
   52.2929   -2.6114   -0.1970 H   0  0  0  0  0  0  0  0  0  0  0  0
   54.2076   -4.4867    0.1199 H   0  0  0  0  0  0  0  0  0  0  0  0
   58.1923   -5.2456   -0.6304 H   0  0  0  0  0  0  0  0  0  0  0  0
   58.1715   -7.6792   -0.1196 H   0  0  0  0  0  0  0  0  0  0  0  0
   55.4309   -7.1740    2.9011 H   0  0  0  0  0  0  0  0  0  0  0  0
   55.3401   -4.7165    2.5307 H   0  0  0  0  0  0  0  0  0  0  0  0
   59.2970   -4.1637    1.5750 H   0  0  0  0  0  0  0  0  0  0  0  0
   61.1767   -2.2615    1.2023 H   0  0  0  0  0  0  0  0  0  0  0  0
   24.4636    0.0316   -0.0009 C   0  0  0  0  0  0  0  0  0  0  0  0
   25.6887    0.0396   -0.0065 C   0  0  0  0  0  0  0  0  0  0  0  0
   27.0301    0.0452   -0.0116 C   0  0  0  0  0  0  0  0  0  0  0  0
   28.2617    0.0472   -0.0150 C   0  0  0  0  0  0  0  0  0  0  0  0
   29.5981    0.0467   -0.0178 C   0  0  0  0  0  0  0  0  0  0  0  0
   30.8299    0.0445   -0.0190 C   0  0  0  0  0  0  0  0  0  0  0  0
   32.1708    0.0404   -0.0192 C   0  0  0  0  0  0  0  0  0  0  0  0
   33.3965    0.0352   -0.0198 C   0  0  0  0  0  0  0  0  0  0  0  0
   42.9850   -0.0023   -0.0022 C   0  0  0  0  0  0  0  0  0  0  0  0
   44.2108   -0.0033    0.0045 C   0  0  0  0  0  0  0  0  0  0  0  0
   45.5515   -0.0046    0.0120 C   0  0  0  0  0  0  0  0  0  0  0  0
   46.7834   -0.0058    0.0191 C   0  0  0  0  0  0  0  0  0  0  0  0
   48.1195   -0.0052    0.0264 C   0  0  0  0  0  0  0  0  0  0  0  0
   49.3513   -0.0044    0.0307 C   0  0  0  0  0  0  0  0  0  0  0  0
   50.6925   -0.0003    0.0330 C   0  0  0  0  0  0  0  0  0  0  0  0
   51.9178    0.0047    0.0330 C   0  0  0  0  0  0  0  0  0  0  0  0
   38.1910    0.0223   -0.0045 Co  0  0  0  0  0  0  0  0  0  0  0  0
   34.7971    0.0244   -0.0222 C   0  0  0  0  0  0  0  0  0  0  0  0
   35.4763   -0.6421    1.0031 C   0  0  0  0  0  0  0  0  0  0  0  0
   34.8252   -1.2891    2.0971 C   0  0  0  0  0  0  0  0  0  0  0  0
   35.7775   -1.9997    2.7501 C   0  0  0  0  0  0  0  0  0  0  0  0
   37.0046   -1.7896    2.0440 C   0  0  0  0  0  0  0  0  0  0  0  0
   36.8173   -0.9017    1.0110 N   0  0  0  0  0  0  0  0  0  0  0  0
   38.1789   -2.4907    2.2837 C   0  0  0  0  0  0  0  0  0  0  0  0
   38.1738   -3.5727    3.2922 C   0  0  0  0  0  0  0  0  0  0  0  0
   37.3204   -4.6692    3.1736 C   0  0  0  0  0  0  0  0  0  0  0  0
   37.3535   -5.6584    4.1438 C   0  0  0  0  0  0  0  0  0  0  0  0
   38.1615   -5.6121    5.1981 N   0  0  0  0  0  0  0  0  0  0  0  0
   38.9754   -4.5685    5.3206 C   0  0  0  0  0  0  0  0  0  0  0  0
   39.0207   -3.5339    4.3995 C   0  0  0  0  0  0  0  0  0  0  0  0
   39.3579   -2.2030    1.6101 C   0  0  0  0  0  0  0  0  0  0  0  0
   40.5838   -2.9221    1.7814 C   0  0  0  0  0  0  0  0  0  0  0  0
   41.5435   -2.2161    1.1350 C   0  0  0  0  0  0  0  0  0  0  0  0
   39.5526   -1.1111    0.7962 N   0  0  0  0  0  0  0  0  0  0  0  0
   40.8980   -1.0777    0.5628 C   0  0  0  0  0  0  0  0  0  0  0  0
   41.5845   -0.0023   -0.0110 C   0  0  0  0  0  0  0  0  0  0  0  0
   40.9057    1.0715   -0.5970 C   0  0  0  0  0  0  0  0  0  0  0  0
   41.5575    2.2056   -1.1700 C   0  0  0  0  0  0  0  0  0  0  0  0
   40.6068    2.9014   -1.8411 C   0  0  0  0  0  0  0  0  0  0  0  0
   39.3796    2.1828   -1.6797 C   0  0  0  0  0  0  0  0  0  0  0  0
   39.5651    1.0959   -0.8584 N   0  0  0  0  0  0  0  0  0  0  0  0
   38.2066    2.4664   -2.3664 C   0  0  0  0  0  0  0  0  0  0  0  0
   38.2180    3.5319   -3.3921 C   0  0  0  0  0  0  0  0  0  0  0  0
   39.0736    3.4657   -4.4915 C   0  0  0  0  0  0  0  0  0  0  0  0
   39.0460    4.4841   -5.4309 C   0  0  0  0  0  0  0  0  0  0  0  0
   38.2415    5.5376   -5.3334 N   0  0  0  0  0  0  0  0  0  0  0  0
   37.4263    5.6108   -4.2862 C   0  0  0  0  0  0  0  0  0  0  0  0
   37.3757    4.6393   -3.2990 C   0  0  0  0  0  0  0  0  0  0  0  0
   37.0248    1.7826   -2.1169 C   0  0  0  0  0  0  0  0  0  0  0  0
   35.7969    2.0074   -2.8178 C   0  0  0  0  0  0  0  0  0  0  0  0
   34.8355    1.3257   -2.1481 C   0  0  0  0  0  0  0  0  0  0  0  0
   35.4823    0.6767   -1.0525 C   0  0  0  0  0  0  0  0  0  0  0  0
   36.8291    0.9032   -1.0772 N   0  0  0  0  0  0  0  0  0  0  0  0
   33.7731   -1.2083    2.3181 H   0  0  0  0  0  0  0  0  0  0  0  0
   35.6688   -2.6142    3.6288 H   0  0  0  0  0  0  0  0  0  0  0  0
   36.6531   -4.7545    2.3244 H   0  0  0  0  0  0  0  0  0  0  0  0
   36.7030   -6.5249    4.0704 H   0  0  0  0  0  0  0  0  0  0  0  0
   39.6205   -4.5578    6.1942 H   0  0  0  0  0  0  0  0  0  0  0  0
   39.6920   -2.6963    4.5467 H   0  0  0  0  0  0  0  0  0  0  0  0
   40.6869   -3.8432    2.3315 H   0  0  0  0  0  0  0  0  0  0  0  0
   42.5974   -2.4278    1.0530 H   0  0  0  0  0  0  0  0  0  0  0  0
   42.6093    2.4215   -1.0727 H   0  0  0  0  0  0  0  0  0  0  0  0
   40.7163    3.8173   -2.3985 H   0  0  0  0  0  0  0  0  0  0  0  0
   39.7381    2.6194   -4.6178 H   0  0  0  0  0  0  0  0  0  0  0  0
   39.6982    4.4519   -6.2987 H   0  0  0  0  0  0  0  0  0  0  0  0
   36.7840    6.4849   -4.2332 H   0  0  0  0  0  0  0  0  0  0  0  0
   36.7034    4.7471   -2.4562 H   0  0  0  0  0  0  0  0  0  0  0  0
   35.6933    2.6143   -3.7023 H   0  0  0  0  0  0  0  0  0  0  0  0
   33.7800    1.2649   -2.3591 H   0  0  0  0  0  0  0  0  0  0  0  0
  2  3  4  0  0  0  0
  3  4  1  0  0  0  0
  4  5  2  0  0  0  0
  5  6  4  0  0  0  0
  1  7  1  0  0  0  0
  3  7  4  0  0  0  0
  6  7  4  0  0  0  0
  6  8  4  0  0  0  0
  8  9  1  0  0  0  0
  9 10  4  0  0  0  0
 10 11  4  0  0  0  0
 11 12  4  0  0  0  0
 12 13  4  0  0  0  0
  9 14  4  0  0  0  0
 13 14  4  0  0  0  0
  8 15  4  0  0  0  0
 15 16  4  0  0  0  0
 16 17  2  0  0  0  0
  1 18  1  0  0  0  0
 15 18  4  0  0  0  0
 17 19  4  0  0  0  0
 18 19  4  0  0  0  0
 19 20  4  0  0  0  0
 20 21  4  0  0  0  0
 21 22  4  0  0  0  0
 22 23  2  0  0  0  0
 23 24  4  0  0  0  0
  1 25  1  0  0  0  0
 21 25  4  0  0  0  0
 24 25  4  0  0  0  0
 24 26  4  0  0  0  0
 26 27  1  0  0  0  0
 27 28  4  0  0  0  0
 28 29  4  0  0  0  0
 29 30  4  0  0  0  0
 30 31  4  0  0  0  0
 27 32  4  0  0  0  0
 31 32  4  0  0  0  0
 26 33  4  0  0  0  0
 33 34  4  0  0  0  0
 34 35  2  0  0  0  0
  2 36  4  0  0  0  0
 35 36  1  0  0  0  0
  1 37  1  0  0  0  0
 33 37  4  0  0  0  0
 36 37  4  0  0  0  0
  2 38  1  0  0  0  0
  4 39  1  0  0  0  0
  5 40  1  0  0  0  0
 10 41  1  0  0  0  0
 11 42  1  0  0  0  0
 13 43  1  0  0  0  0
 14 44  1  0  0  0  0
 16 45  1  0  0  0  0
 17 46  1  0  0  0  0
 22 47  1  0  0  0  0
 23 48  1  0  0  0  0
 28 49  1  0  0  0  0
 29 50  1  0  0  0  0
 31 51  1  0  0  0  0
 32 52  1  0  0  0  0
 34 53  1  0  0  0  0
 35 54  1  0  0  0  0
 56 57  4  0  0  0  0
 57 58  1  0  0  0  0
 58 59  2  0  0  0  0
 59 60  4  0  0  0  0
 55 61  1  0  0  0  0
 57 61  4  0  0  0  0
 60 61  4  0  0  0  0
 60 62  4  0  0  0  0
 62 63  1  0  0  0  0
 63 64  4  0  0  0  0
 64 65  4  0  0  0  0
 65 66  4  0  0  0  0
 66 67  4  0  0  0  0
 63 68  4  0  0  0  0
 67 68  4  0  0  0  0
 62 69  4  0  0  0  0
 69 70  4  0  0  0  0
 70 71  2  0  0  0  0
 55 72  1  0  0  0  0
 69 72  4  0  0  0  0
 71 73  4  0  0  0  0
 72 73  4  0  0  0  0
 73 74  4  0  0  0  0
 74 75  4  0  0  0  0
 75 76  4  0  0  0  0
 76 77  2  0  0  0  0
 77 78  4  0  0  0  0
 55 79  1  0  0  0  0
 75 79  4  0  0  0  0
 78 79  4  0  0  0  0
 78 80  4  0  0  0  0
 80 81  1  0  0  0  0
 81 82  4  0  0  0  0
 82 83  4  0  0  0  0
 83 84  4  0  0  0  0
 84 85  4  0  0  0  0
 81 86  4  0  0  0  0
 85 86  4  0  0  0  0
 80 87  4  0  0  0  0
 87 88  4  0  0  0  0
 88 89  2  0  0  0  0
 56 90  4  0  0  0  0
 89 90  1  0  0  0  0
 55 91  1  0  0  0  0
 87 91  4  0  0  0  0
 90 91  4  0  0  0  0
 56 92  1  0  0  0  0
 58 93  1  0  0  0  0
 59 94  1  0  0  0  0
 64 95  1  0  0  0  0
 65 96  1  0  0  0  0
 67 97  1  0  0  0  0
 68 98  1  0  0  0  0
 70 99  1  0  0  0  0
 71100  1  0  0  0  0
 76101  1  0  0  0  0
 77102  1  0  0  0  0
 82103  1  0  0  0  0
 83104  1  0  0  0  0
 85105  1  0  0  0  0
 86106  1  0  0  0  0
 88107  1  0  0  0  0
 89108  1  0  0  0  0
 20109  4  0  0  0  0
109110  3  0  0  0  0
110111  4  0  0  0  0
111112  3  0  0  0  0
112113  4  0  0  0  0
113114  3  0  0  0  0
114115  4  0  0  0  0
115116  3  0  0  0  0
117118  3  0  0  0  0
118119  4  0  0  0  0
119120  3  0  0  0  0
120121  4  0  0  0  0
121122  3  0  0  0  0
122123  4  0  0  0  0
 74124  4  0  0  0  0
123124  3  0  0  0  0
116126  4  0  0  0  0
126127  4  0  0  0  0
127128  4  0  0  0  0
128129  2  0  0  0  0
129130  4  0  0  0  0
125131  1  0  0  0  0
127131  4  0  0  0  0
130131  4  0  0  0  0
130132  4  0  0  0  0
132133  1  0  0  0  0
133134  4  0  0  0  0
134135  4  0  0  0  0
135136  4  0  0  0  0
136137  4  0  0  0  0
133138  4  0  0  0  0
137138  4  0  0  0  0
132139  4  0  0  0  0
139140  4  0  0  0  0
140141  2  0  0  0  0
125142  1  0  0  0  0
139142  4  0  0  0  0
141143  4  0  0  0  0
142143  4  0  0  0  0
117144  4  0  0  0  0
143144  4  0  0  0  0
144145  4  0  0  0  0
145146  4  0  0  0  0
146147  2  0  0  0  0
147148  4  0  0  0  0
125149  1  0  0  0  0
145149  4  0  0  0  0
148149  4  0  0  0  0
148150  4  0  0  0  0
150151  1  0  0  0  0
151152  4  0  0  0  0
152153  4  0  0  0  0
153154  4  0  0  0  0
154155  4  0  0  0  0
151156  4  0  0  0  0
155156  4  0  0  0  0
150157  4  0  0  0  0
157158  4  0  0  0  0
158159  2  0  0  0  0
126160  4  0  0  0  0
159160  4  0  0  0  0
125161  1  0  0  0  0
157161  4  0  0  0  0
160161  4  0  0  0  0
128162  1  0  0  0  0
129163  1  0  0  0  0
134164  1  0  0  0  0
135165  1  0  0  0  0
137166  1  0  0  0  0
138167  1  0  0  0  0
140168  1  0  0  0  0
141169  1  0  0  0  0
146170  1  0  0  0  0
147171  1  0  0  0  0
152172  1  0  0  0  0
153173  1  0  0  0  0
155174  1  0  0  0  0
156175  1  0  0  0  0
158176  1  0  0  0  0
159177  1  0  0  0  0
M  END
