 xtb: 6.5.1 (b24c23e)
          07302204003D

130149  0     0  0            999 V2000
   14.7341    0.0454    0.0523 Co  0  0  0  0  0  0  0  0  0  0  0  0
   11.3585    0.0763    0.1486 C   0  0  0  0  0  0  0  0  0  0  0  0
   12.0167    1.2586   -0.1131 C   0  0  0  0  0  0  0  0  0  0  0  0
   11.3503    2.4997   -0.3643 C   0  0  0  0  0  0  0  0  0  0  0  0
   12.3111    3.4511   -0.4205 C   0  0  0  0  0  0  0  0  0  0  0  0
   13.5641    2.7901   -0.1980 C   0  0  0  0  0  0  0  0  0  0  0  0
   13.3754    1.4390   -0.0521 N   0  0  0  0  0  0  0  0  0  0  0  0
   14.7598    3.4573    0.0315 C   0  0  0  0  0  0  0  0  0  0  0  0
   14.7670    4.9413    0.0042 C   0  0  0  0  0  0  0  0  0  0  0  0
   14.5153    5.6185   -1.1884 C   0  0  0  0  0  0  0  0  0  0  0  0
   14.5204    7.0085   -1.2136 C   0  0  0  0  0  0  0  0  0  0  0  0
   14.2837    7.6780   -2.3677 O   0  0  0  0  0  0  0  0  0  0  0  0
   14.7698    7.7242   -0.0414 C   0  0  0  0  0  0  0  0  0  0  0  0
   14.7635    9.0933   -0.0956 O   0  0  0  0  0  0  0  0  0  0  0  0
   15.0167    7.0463    1.1497 C   0  0  0  0  0  0  0  0  0  0  0  0
   15.2478    7.8167    2.2587 O   0  0  0  0  0  0  0  0  0  0  0  0
   15.0200    5.6570    1.1768 C   0  0  0  0  0  0  0  0  0  0  0  0
   15.9385    2.7819    0.3078 C   0  0  0  0  0  0  0  0  0  0  0  0
   17.1889    3.4296    0.5680 C   0  0  0  0  0  0  0  0  0  0  0  0
   18.1305    2.4576    0.6199 C   0  0  0  0  0  0  0  0  0  0  0  0
   16.1114    1.4177    0.2328 N   0  0  0  0  0  0  0  0  0  0  0  0
   17.4562    1.2220    0.3766 C   0  0  0  0  0  0  0  0  0  0  0  0
   18.1288    0.0160    0.1638 C   0  0  0  0  0  0  0  0  0  0  0  0
   17.4479   -1.1720   -0.1154 C   0  0  0  0  0  0  0  0  0  0  0  0
   18.1068   -2.3987   -0.4332 C   0  0  0  0  0  0  0  0  0  0  0  0
   17.1431   -3.3474   -0.5123 C   0  0  0  0  0  0  0  0  0  0  0  0
   15.9002   -2.6987   -0.2208 C   0  0  0  0  0  0  0  0  0  0  0  0
   16.0959   -1.3479   -0.0366 N   0  0  0  0  0  0  0  0  0  0  0  0
   14.7003   -3.3672   -0.0342 C   0  0  0  0  0  0  0  0  0  0  0  0
   14.6760   -4.8470   -0.1097 C   0  0  0  0  0  0  0  0  0  0  0  0
   15.4546   -5.6091    0.7614 C   0  0  0  0  0  0  0  0  0  0  0  0
   15.4229   -6.9969    0.6917 C   0  0  0  0  0  0  0  0  0  0  0  0
   16.1676   -7.7471    1.5396 O   0  0  0  0  0  0  0  0  0  0  0  0
   14.6180   -7.6274   -0.2586 C   0  0  0  0  0  0  0  0  0  0  0  0
   14.6102   -8.9963   -0.3069 O   0  0  0  0  0  0  0  0  0  0  0  0
   13.8441   -6.8660   -1.1309 C   0  0  0  0  0  0  0  0  0  0  0  0
   13.0833   -7.5553   -2.0381 O   0  0  0  0  0  0  0  0  0  0  0  0
   13.8652   -5.4791   -1.0567 C   0  0  0  0  0  0  0  0  0  0  0  0
   13.5177   -2.6893    0.2342 C   0  0  0  0  0  0  0  0  0  0  0  0
   12.2713   -3.3341    0.5266 C   0  0  0  0  0  0  0  0  0  0  0  0
   11.3326   -2.3607    0.5919 C   0  0  0  0  0  0  0  0  0  0  0  0
   12.0072   -1.1240    0.3407 C   0  0  0  0  0  0  0  0  0  0  0  0
   13.3555   -1.3289    0.1833 N   0  0  0  0  0  0  0  0  0  0  0  0
   10.2757    0.0883    0.1892 H   0  0  0  0  0  0  0  0  0  0  0  0
   10.2826    2.6094   -0.4686 H   0  0  0  0  0  0  0  0  0  0  0  0
   12.1937    4.5115   -0.5735 H   0  0  0  0  0  0  0  0  0  0  0  0
   14.3322    5.0725   -2.1047 H   0  0  0  0  0  0  0  0  0  0  0  0
   14.3314    8.6306   -2.1834 H   0  0  0  0  0  0  0  0  0  0  0  0
   14.9530    9.4285    0.7952 H   0  0  0  0  0  0  0  0  0  0  0  0
   15.4089    7.2637    3.0344 H   0  0  0  0  0  0  0  0  0  0  0  0
   15.1987    5.1356    2.1098 H   0  0  0  0  0  0  0  0  0  0  0  0
   17.3221    4.4938    0.6745 H   0  0  0  0  0  0  0  0  0  0  0  0
   19.1918    2.5540    0.7828 H   0  0  0  0  0  0  0  0  0  0  0  0
   19.1705   -2.5033   -0.5742 H   0  0  0  0  0  0  0  0  0  0  0  0
   17.2533   -4.3945   -0.7424 H   0  0  0  0  0  0  0  0  0  0  0  0
   16.0711   -5.1312    1.5115 H   0  0  0  0  0  0  0  0  0  0  0  0
   16.0106   -8.6841    1.3369 H   0  0  0  0  0  0  0  0  0  0  0  0
   14.0049   -9.2671   -1.0154 H   0  0  0  0  0  0  0  0  0  0  0  0
   12.5859   -6.9481   -2.6013 H   0  0  0  0  0  0  0  0  0  0  0  0
   13.2695   -4.8925   -1.7460 H   0  0  0  0  0  0  0  0  0  0  0  0
   12.1453   -4.3957    0.6649 H   0  0  0  0  0  0  0  0  0  0  0  0
   10.2746   -2.4523    0.7795 H   0  0  0  0  0  0  0  0  0  0  0  0
   30.6912   -0.0514    0.0438 Co  0  0  0  0  0  0  0  0  0  0  0  0
   34.0668   -0.0935    0.1312 C   0  0  0  0  0  0  0  0  0  0  0  0
   33.4078   -1.2379   -0.2631 C   0  0  0  0  0  0  0  0  0  0  0  0
   34.0732   -2.4425   -0.6556 C   0  0  0  0  0  0  0  0  0  0  0  0
   33.1121   -3.3816   -0.8162 C   0  0  0  0  0  0  0  0  0  0  0  0
   31.8599   -2.7502   -0.5166 C   0  0  0  0  0  0  0  0  0  0  0  0
   32.0492   -1.4242   -0.2197 N   0  0  0  0  0  0  0  0  0  0  0  0
   30.6647   -3.4392   -0.3601 C   0  0  0  0  0  0  0  0  0  0  0  0
   30.6570   -4.9107   -0.5535 C   0  0  0  0  0  0  0  0  0  0  0  0
   30.9043   -5.4500   -1.8153 C   0  0  0  0  0  0  0  0  0  0  0  0
   30.8986   -6.8285   -1.9961 C   0  0  0  0  0  0  0  0  0  0  0  0
   31.1309   -7.3645   -3.2187 O   0  0  0  0  0  0  0  0  0  0  0  0
   30.6532   -7.6709   -0.9105 C   0  0  0  0  0  0  0  0  0  0  0  0
   30.6589   -9.0254   -1.1178 O   0  0  0  0  0  0  0  0  0  0  0  0
   30.4107   -7.1308    0.3498 C   0  0  0  0  0  0  0  0  0  0  0  0
   30.1834   -8.0206    1.3665 O   0  0  0  0  0  0  0  0  0  0  0  0
   30.4079   -5.7533    0.5325 C   0  0  0  0  0  0  0  0  0  0  0  0
   29.4867   -2.7989   -0.0077 C   0  0  0  0  0  0  0  0  0  0  0  0
   28.2363   -3.4715    0.1795 C   0  0  0  0  0  0  0  0  0  0  0  0
   27.2948   -2.5112    0.3390 C   0  0  0  0  0  0  0  0  0  0  0  0
   29.3139   -1.4348    0.0695 N   0  0  0  0  0  0  0  0  0  0  0  0
   27.9691   -1.2561    0.2341 C   0  0  0  0  0  0  0  0  0  0  0  0
   27.2966   -0.0338    0.1566 C   0  0  0  0  0  0  0  0  0  0  0  0
   27.9779    1.1778    0.0134 C   0  0  0  0  0  0  0  0  0  0  0  0
   27.3198    2.4329   -0.1637 C   0  0  0  0  0  0  0  0  0  0  0  0
   28.2838    3.3842   -0.1327 C   0  0  0  0  0  0  0  0  0  0  0  0
   29.5261    2.7061    0.0851 C   0  0  0  0  0  0  0  0  0  0  0  0
   29.3300    1.3432    0.1137 N   0  0  0  0  0  0  0  0  0  0  0  0
   30.7260    3.3485    0.3483 C   0  0  0  0  0  0  0  0  0  0  0  0
   30.7506    4.8271    0.4429 C   0  0  0  0  0  0  0  0  0  0  0  0
   29.9711    5.4845    1.3947 C   0  0  0  0  0  0  0  0  0  0  0  0
   30.0029    6.8712    1.4846 C   0  0  0  0  0  0  0  0  0  0  0  0
   29.2571    7.5193    2.4120 O   0  0  0  0  0  0  0  0  0  0  0  0
   30.8087    7.6062    0.6137 C   0  0  0  0  0  0  0  0  0  0  0  0
   30.8166    8.9717    0.7226 O   0  0  0  0  0  0  0  0  0  0  0  0
   31.5834    6.9498   -0.3393 C   0  0  0  0  0  0  0  0  0  0  0  0
   32.3454    7.7384   -1.1606 O   0  0  0  0  0  0  0  0  0  0  0  0
   31.5623    5.5635   -0.4245 C   0  0  0  0  0  0  0  0  0  0  0  0
   31.9083    2.6440    0.5376 C   0  0  0  0  0  0  0  0  0  0  0  0
   33.1550    3.2504    0.9019 C   0  0  0  0  0  0  0  0  0  0  0  0
   34.0936    2.2760    0.8532 C   0  0  0  0  0  0  0  0  0  0  0  0
   33.4186    1.0766    0.4616 C   0  0  0  0  0  0  0  0  0  0  0  0
   32.0702    1.2985    0.3299 N   0  0  0  0  0  0  0  0  0  0  0  0
   35.1497   -0.1100    0.1679 H   0  0  0  0  0  0  0  0  0  0  0  0
   35.1406   -2.5395   -0.7748 H   0  0  0  0  0  0  0  0  0  0  0  0
   33.2288   -4.4179   -1.0884 H   0  0  0  0  0  0  0  0  0  0  0  0
   31.0843   -4.8049   -2.6654 H   0  0  0  0  0  0  0  0  0  0  0  0
   31.0835   -8.3318   -3.1421 H   0  0  0  0  0  0  0  0  0  0  0  0
   30.4724   -9.4583   -0.2694 H   0  0  0  0  0  0  0  0  0  0  0  0
   30.0253   -7.5579    2.1998 H   0  0  0  0  0  0  0  0  0  0  0  0
   30.2325   -5.3395    1.5185 H   0  0  0  0  0  0  0  0  0  0  0  0
   28.1032   -4.5409    0.1675 H   0  0  0  0  0  0  0  0  0  0  0  0
   26.2335   -2.6250    0.4904 H   0  0  0  0  0  0  0  0  0  0  0  0
   26.2564    2.5534   -0.2935 H   0  0  0  0  0  0  0  0  0  0  0  0
   28.1742    4.4507   -0.2422 H   0  0  0  0  0  0  0  0  0  0  0  0
   29.3534    4.9238    2.0843 H   0  0  0  0  0  0  0  0  0  0  0  0
   29.4143    8.4733    2.3182 H   0  0  0  0  0  0  0  0  0  0  0  0
   31.4225    9.3218    0.0504 H   0  0  0  0  0  0  0  0  0  0  0  0
   32.8432    7.1997   -1.7894 H   0  0  0  0  0  0  0  0  0  0  0  0
   32.1590    5.0597   -1.1758 H   0  0  0  0  0  0  0  0  0  0  0  0
   33.2812    4.2889    1.1622 H   0  0  0  0  0  0  0  0  0  0  0  0
   35.1517    2.3453    1.0494 H   0  0  0  0  0  0  0  0  0  0  0  0
   23.3274   -0.0156    0.2260 C   0  0  0  0  0  0  0  0  0  0  0  0
   22.0983   -0.0084    0.2283 C   0  0  0  0  0  0  0  0  0  0  0  0
   20.7552   -0.0025    0.2193 C   0  0  0  0  0  0  0  0  0  0  0  0
   19.5308    0.0033    0.1984 C   0  0  0  0  0  0  0  0  0  0  0  0
   24.6705   -0.0193    0.2133 C   0  0  0  0  0  0  0  0  0  0  0  0
   25.8947   -0.0254    0.1901 C   0  0  0  0  0  0  0  0  0  0  0  0
  2  3  4  0  0  0  0
  3  4  1  0  0  0  0
  4  5  2  0  0  0  0
  5  6  4  0  0  0  0
  1  7  1  0  0  0  0
  3  7  4  0  0  0  0
  6  7  4  0  0  0  0
  6  8  4  0  0  0  0
  8  9  1  0  0  0  0
  9 10  4  0  0  0  0
 10 11  4  0  0  0  0
 11 12  1  0  0  0  0
 11 13  4  0  0  0  0
 13 14  1  0  0  0  0
 13 15  4  0  0  0  0
 15 16  1  0  0  0  0
  9 17  4  0  0  0  0
 15 17  4  0  0  0  0
  8 18  4  0  0  0  0
 18 19  4  0  0  0  0
 19 20  2  0  0  0  0
  1 21  1  0  0  0  0
 18 21  4  0  0  0  0
 20 22  4  0  0  0  0
 21 22  4  0  0  0  0
 22 23  4  0  0  0  0
 23 24  4  0  0  0  0
 24 25  4  0  0  0  0
 25 26  2  0  0  0  0
 26 27  4  0  0  0  0
  1 28  1  0  0  0  0
 24 28  4  0  0  0  0
 27 28  4  0  0  0  0
 27 29  4  0  0  0  0
 29 30  1  0  0  0  0
 30 31  4  0  0  0  0
 31 32  4  0  0  0  0
 32 33  1  0  0  0  0
 32 34  4  0  0  0  0
 34 35  1  0  0  0  0
 34 36  4  0  0  0  0
 36 37  1  0  0  0  0
 30 38  4  0  0  0  0
 36 38  4  0  0  0  0
 29 39  4  0  0  0  0
 39 40  4  0  0  0  0
 40 41  2  0  0  0  0
  2 42  4  0  0  0  0
 41 42  1  0  0  0  0
  1 43  1  0  0  0  0
 39 43  4  0  0  0  0
 42 43  4  0  0  0  0
  2 44  1  0  0  0  0
  4 45  1  0  0  0  0
  5 46  1  0  0  0  0
 10 47  1  0  0  0  0
 12 48  1  0  0  0  0
 14 49  1  0  0  0  0
 16 50  1  0  0  0  0
 17 51  1  0  0  0  0
 19 52  1  0  0  0  0
 20 53  1  0  0  0  0
 25 54  1  0  0  0  0
 26 55  1  0  0  0  0
 31 56  1  0  0  0  0
 33 57  1  0  0  0  0
 35 58  1  0  0  0  0
 37 59  1  0  0  0  0
 38 60  1  0  0  0  0
 40 61  1  0  0  0  0
 41 62  1  0  0  0  0
 64 65  4  0  0  0  0
 65 66  1  0  0  0  0
 66 67  2  0  0  0  0
 67 68  4  0  0  0  0
 63 69  1  0  0  0  0
 65 69  4  0  0  0  0
 68 69  4  0  0  0  0
 68 70  4  0  0  0  0
 70 71  1  0  0  0  0
 71 72  4  0  0  0  0
 72 73  4  0  0  0  0
 73 74  1  0  0  0  0
 73 75  4  0  0  0  0
 75 76  1  0  0  0  0
 75 77  4  0  0  0  0
 77 78  1  0  0  0  0
 71 79  4  0  0  0  0
 77 79  4  0  0  0  0
 70 80  4  0  0  0  0
 80 81  4  0  0  0  0
 81 82  2  0  0  0  0
 63 83  1  0  0  0  0
 80 83  4  0  0  0  0
 82 84  4  0  0  0  0
 83 84  4  0  0  0  0
 84 85  4  0  0  0  0
 85 86  4  0  0  0  0
 86 87  4  0  0  0  0
 87 88  2  0  0  0  0
 88 89  4  0  0  0  0
 63 90  1  0  0  0  0
 86 90  4  0  0  0  0
 89 90  4  0  0  0  0
 89 91  4  0  0  0  0
 91 92  1  0  0  0  0
 92 93  4  0  0  0  0
 93 94  4  0  0  0  0
 94 95  1  0  0  0  0
 94 96  4  0  0  0  0
 96 97  1  0  0  0  0
 96 98  4  0  0  0  0
 98 99  1  0  0  0  0
 92100  4  0  0  0  0
 98100  4  0  0  0  0
 91101  4  0  0  0  0
101102  4  0  0  0  0
102103  2  0  0  0  0
 64104  4  0  0  0  0
103104  1  0  0  0  0
 63105  1  0  0  0  0
101105  4  0  0  0  0
104105  4  0  0  0  0
 64106  1  0  0  0  0
 66107  1  0  0  0  0
 67108  1  0  0  0  0
 72109  1  0  0  0  0
 74110  1  0  0  0  0
 76111  1  0  0  0  0
 78112  1  0  0  0  0
 79113  1  0  0  0  0
 81114  1  0  0  0  0
 82115  1  0  0  0  0
 87116  1  0  0  0  0
 88117  1  0  0  0  0
 93118  1  0  0  0  0
 95119  1  0  0  0  0
 97120  1  0  0  0  0
 99121  1  0  0  0  0
100122  1  0  0  0  0
102123  1  0  0  0  0
103124  1  0  0  0  0
125126  3  0  0  0  0
126127  4  0  0  0  0
 23128  4  0  0  0  0
127128  3  0  0  0  0
125129  4  0  0  0  0
 85130  4  0  0  0  0
129130  3  0  0  0  0
M  END
