248

C 22.716169 -0.016068 -0.015060
C 23.444124 1.359540 0.080916
C 22.836370 2.594065 0.062466
C 23.858729 3.563097 0.234705
C 25.055940 2.885420 0.360651
N 24.796666 1.546101 0.211289
C 26.477497 3.522034 0.652627
C 26.514270 4.936550 1.085168
C 26.801645 5.948325 0.170514
C 26.813189 7.255809 0.624232
N 26.559136 7.620310 1.903117
C 26.284932 6.611799 2.764133
C 26.249517 5.274026 2.410858
C 27.608706 2.773554 0.553613
C 28.913047 3.310685 0.884320
C 29.815912 2.351288 0.718478
N 27.805562 1.470019 0.182417
C 29.137237 1.154720 0.261578
C 29.805160 -0.000100 -0.001134
C 29.025695 -1.278618 -0.525259
C 29.560247 -2.311648 -1.269925
C 28.534780 -3.269134 -1.470470
C 27.400575 -2.788905 -0.851157
N 27.694347 -1.552345 -0.326926
C 25.994671 -3.517726 -0.773804
C 25.970160 -4.988371 -0.918104
C 26.366779 -5.803450 0.139685
C 26.341490 -7.174960 -0.046231
N 25.957170 -7.781684 -1.194189
C 25.579235 -6.959709 -2.201116
C 25.570221 -5.578278 -2.116286
C 24.868262 -2.790251 -0.558491
C 23.549049 -3.389985 -0.459525
C 22.662621 -2.418693 -0.261971
C 23.381388 -1.169256 -0.214167
N 24.701461 -1.444542 -0.388369
H 21.639460 -0.030136 0.104901
H 21.778119 2.775939 -0.045356
H 23.729870 4.633740 0.286778
H 25.496920 0.808506 0.202518
H 27.013874 5.705296 -0.865066
H 27.035654 8.071883 -0.055367
H 26.086022 6.915733 3.786609
H 26.025018 4.501336 3.138215
H 29.126647 4.309313 1.221367
H 30.869530 2.466741 0.896164
H 30.578790 -2.378619 -1.621107
H 28.617322 -4.205301 -2.001856
H 27.014637 -0.921095 0.089275
H 26.684047 -5.365578 1.079947
H 26.641711 -7.843539 0.753962
H 25.271345 -7.456718 -3.115149
H 25.257593 -4.960985 -2.951743
H 23.320271 -4.438113 -0.529026
H 21.600560 -2.537538 -0.146023
C 97.184040 0.020472 -0.006200
C 96.456084 -1.246331 -0.550919
C 97.063839 -2.335311 -1.132740
C 96.041480 -3.275618 -1.423450
C 94.844269 -2.730881 -1.001111
N 95.103543 -1.471886 -0.520470
C 93.422712 -3.430524 -1.033132
C 93.385939 -4.886064 -1.296482
C 93.098564 -5.366563 -2.572962
C 93.087020 -6.736656 -2.768465
N 93.341073 -7.646415 -1.798545
C 93.615277 -7.144251 -0.571242
C 93.650692 -5.793237 -0.272577
C 92.291503 -2.719815 -0.778342
C 90.987162 -3.348763 -0.730369
C 90.084297 -2.419952 -0.438385
N 92.094647 -1.391029 -0.511289
C 90.762972 -1.147000 -0.296511
C 90.095049 -0.000100 -0.001134
C 90.874514 1.376490 0.118514
C 90.339962 2.635862 -0.070323
C 91.365428 3.578869 0.189938
C 92.499634 2.868320 0.520528
N 92.205862 1.528981 0.420191
C 93.905538 3.480777 0.923095
C 93.930049 4.854196 1.468384
C 93.533430 5.094287 2.782015
C 93.558718 6.398640 3.244905
N 93.943038 7.463758 2.502312
C 94.320974 7.194242 1.230736
C 94.329988 5.927368 0.673442
C 95.031947 2.735475 0.781310
C 96.351160 3.223281 1.143967
C 97.237588 2.269371 0.874725
C 96.518821 1.136790 0.344971
N 95.198748 1.461291 0.316197
H 98.260749 -0.021965 0.106883
H 98.122090 -2.447604 -1.311887
H 96.170339 -4.251214 -1.867521
H 94.403289 -0.812184 -0.190444
H 92.886335 -4.676221 -3.382230
H 92.864555 -7.150844 -3.746360
H 93.814187 -7.882733 0.198485
H 93.875191 -5.439489 0.727903
H 90.773561 -4.390862 -0.888130
H 89.030679 -2.603964 -0.333309
H 89.321419 2.856239 -0.351832
H 91.282887 4.654452 0.146333
H 92.885572 0.777209 0.501056
H 93.216162 4.274395 3.417312
H 93.258498 6.626479 4.262450
H 94.628864 8.054691 0.645840
H 94.642616 5.761270 -0.351960
H 96.579938 4.186845 1.562233
H 98.299649 2.321912 1.032229
C 32.820138 -0.004408 0.004447
C 34.185126 -0.018084 -0.009368
C 35.949101 -0.005898 -0.016211
C 36.606619 -0.009231 -0.026353
C 38.186252 0.005255 -0.034535
C 39.296566 0.005194 -0.025248
C 40.879785 0.029205 -0.000708
C 42.023865 0.032688 0.012892
C 43.366108 0.017537 0.015994
C 44.486815 -0.004408 0.004447
C 54.057465 -0.004408 0.004447
C 55.422452 -0.018084 -0.009368
C 57.186428 -0.005898 -0.016211
C 57.843945 -0.009231 -0.026353
C 59.423579 0.005255 -0.034535
C 60.533893 0.005194 -0.025248
C 62.117112 0.029205 -0.000708
C 63.261192 0.032688 0.012892
C 64.603435 0.017537 0.015994
C 65.724142 -0.004408 0.004447
C 75.294791 -0.004408 0.004447
C 76.659779 -0.018084 -0.009368
C 78.423754 -0.005898 -0.016211
C 79.081272 -0.009231 -0.026353
C 80.660905 0.005255 -0.034535
C 81.771219 0.005194 -0.025248
C 83.354438 0.029205 -0.000708
C 84.498518 0.032688 0.012892
C 85.840761 0.017537 0.015994
C 86.961468 -0.004408 0.004447
C 45.751676 0.001326 -0.000080
C 46.547457 -1.244172 0.571031
C 46.047063 -2.239531 1.383550
C 47.085264 -3.185374 1.584295
C 48.188748 -2.734671 0.890717
N 47.873522 -1.517106 0.343405
C 49.577319 -3.480173 0.744731
C 49.569963 -4.956848 0.822832
C 49.987615 -5.607736 1.982978
C 49.946321 -6.991135 2.008908
N 49.521808 -7.759418 0.978308
C 49.122426 -7.094504 -0.131613
C 49.125751 -5.715688 -0.257511
C 50.712904 -2.770878 0.515503
C 51.999920 -3.406964 0.321606
C 52.908504 -2.459128 0.117620
N 50.921121 -1.424774 0.403824
C 52.246271 -1.171766 0.170486
C 52.909984 0.001326 -0.000080
C 52.112864 1.367805 0.068931
C 52.605865 2.591176 0.472524
C 51.568027 3.543201 0.302952
C 50.471955 2.868893 -0.191862
N 50.790360 1.535854 -0.258508
C 49.086772 3.505874 -0.611957
C 49.098533 4.899428 -1.105247
C 48.702599 5.948671 -0.278039
C 48.745548 7.235153 -0.786500
N 49.151518 7.545202 -2.039605
C 49.530402 6.502063 -2.814963
C 49.524336 5.181198 -2.401307
C 47.950093 2.764307 -0.556516
C 46.663928 3.282861 -0.974620
C 45.754662 2.328564 -0.808428
C 46.415788 1.153614 -0.277702
N 47.740389 1.475298 -0.153592
H 45.043657 -2.291791 1.773368
H 47.027964 -4.098912 2.153749
H 48.532414 -0.892210 -0.114028
H 50.337383 -5.035177 2.835649
H 50.263867 -7.534104 2.892329
H 48.785153 -7.720790 -0.951418
H 48.794726 -5.230578 -1.168943
H 52.197108 -4.464213 0.328966
H 53.953510 -2.637396 -0.058744
H 53.605551 2.783212 0.830166
H 51.620782 4.602789 0.502465
H 50.136346 0.786766 -0.465695
H 48.367795 5.750187 0.734224
H 48.443462 8.078894 -0.175035
H 49.852469 6.762418 -3.817426
H 49.838539 4.380149 -3.061463
H 46.467686 4.266687 -1.362317
H 44.709576 2.429322 -1.037688
C 66.989003 0.001326 -0.000080
C 67.784783 -1.244172 0.571031
C 67.284389 -2.239531 1.383550
C 68.322590 -3.185374 1.584295
C 69.426074 -2.734671 0.890717
N 69.110848 -1.517106 0.343405
C 70.814645 -3.480173 0.744731
C 70.807289 -4.956848 0.822832
C 71.224941 -5.607736 1.982978
C 71.183647 -6.991135 2.008908
N 70.759134 -7.759418 0.978308
C 70.359752 -7.094504 -0.131613
C 70.363078 -5.715688 -0.257511
C 71.950231 -2.770878 0.515503
C 73.237247 -3.406964 0.321606
C 74.145830 -2.459128 0.117620
N 72.158447 -1.424774 0.403824
C 73.483598 -1.171766 0.170486
C 74.147310 0.001326 -0.000080
C 73.350190 1.367805 0.068931
C 73.843191 2.591176 0.472524
C 72.805354 3.543201 0.302952
C 71.709281 2.868893 -0.191862
N 72.027687 1.535854 -0.258508
C 70.324098 3.505874 -0.611957
C 70.335859 4.899428 -1.105247
C 69.939926 5.948671 -0.278039
C 69.982874 7.235153 -0.786500
N 70.388845 7.545202 -2.039605
C 70.767728 6.502063 -2.814963
C 70.761663 5.181198 -2.401307
C 69.187420 2.764307 -0.556516
C 67.901254 3.282861 -0.974620
C 66.991988 2.328564 -0.808428
C 67.653115 1.153614 -0.277702
N 68.977715 1.475298 -0.153592
H 66.280983 -2.291791 1.773368
H 68.265290 -4.098912 2.153749
H 69.769741 -0.892210 -0.114028
H 71.574709 -5.035177 2.835649
H 71.501193 -7.534104 2.892329
H 70.022480 -7.720790 -0.951418
H 70.032053 -5.230578 -1.168943
H 73.434434 -4.464213 0.328966
H 75.190836 -2.637396 -0.058744
H 74.842878 2.783212 0.830166
H 72.858109 4.602789 0.502465
H 71.373672 0.786766 -0.465695
H 69.605121 5.750187 0.734224
H 69.680788 8.078894 -0.175035
H 71.089795 6.762418 -3.817426
H 71.075865 4.380149 -3.061463
H 67.705013 4.266687 -1.362317
H 65.946903 2.429322 -1.037688
