 xtb: 6.5.1 (b24c23e)
          07302208453D

270314  0     0  0            999 V2000
   43.4560    0.7961   -2.5011 Cu  0  0  0  0  0  0  0  0  0  0  0  0
   40.1027    0.3272   -2.1278 C   0  0  0  0  0  0  0  0  0  0  0  0
   40.5643    1.6318   -2.0474 C   0  0  0  0  0  0  0  0  0  0  0  0
   39.7287    2.7823   -1.8551 C   0  0  0  0  0  0  0  0  0  0  0  0
   40.5459    3.8635   -1.8263 C   0  0  0  0  0  0  0  0  0  0  0  0
   41.8907    3.3814   -1.9897 C   0  0  0  0  0  0  0  0  0  0  0  0
   41.8705    2.0235   -2.1310 N   0  0  0  0  0  0  0  0  0  0  0  0
   43.0339    4.1828   -2.0142 C   0  0  0  0  0  0  0  0  0  0  0  0
   42.8522    5.6394   -1.7919 C   0  0  0  0  0  0  0  0  0  0  0  0
   42.3221    6.1083   -0.5933 C   0  0  0  0  0  0  0  0  0  0  0  0
   42.1508    7.4758   -0.3822 C   0  0  0  0  0  0  0  0  0  0  0  0
   41.5811    7.9123    0.9176 C   0  0  0  0  0  0  0  0  0  0  0  0
   41.4650    9.2431    1.0322 O   0  0  0  0  0  0  0  0  0  0  0  0
   41.2461    7.1626    1.7987 O   0  0  0  0  0  0  0  0  0  0  0  0
   42.5088    8.3867   -1.3759 C   0  0  0  0  0  0  0  0  0  0  0  0
   43.0354    7.9222   -2.5709 C   0  0  0  0  0  0  0  0  0  0  0  0
   43.2080    6.5610   -2.7793 C   0  0  0  0  0  0  0  0  0  0  0  0
   44.3346    3.7190   -2.2194 C   0  0  0  0  0  0  0  0  0  0  0  0
   45.5146    4.5351   -2.1714 C   0  0  0  0  0  0  0  0  0  0  0  0
   46.5737    3.7172   -2.3968 C   0  0  0  0  0  0  0  0  0  0  0  0
   44.6932    2.4200   -2.4654 N   0  0  0  0  0  0  0  0  0  0  0  0
   46.0499    2.3971   -2.5786 C   0  0  0  0  0  0  0  0  0  0  0  0
   46.8387    1.2614   -2.8288 C   0  0  0  0  0  0  0  0  0  0  0  0
   46.3463   -0.0463   -2.9817 C   0  0  0  0  0  0  0  0  0  0  0  0
   47.1600   -1.1821   -3.2942 C   0  0  0  0  0  0  0  0  0  0  0  0
   46.3351   -2.2589   -3.3392 C   0  0  0  0  0  0  0  0  0  0  0  0
   45.0121   -1.7884   -3.0419 C   0  0  0  0  0  0  0  0  0  0  0  0
   45.0485   -0.4335   -2.8425 N   0  0  0  0  0  0  0  0  0  0  0  0
   43.8738   -2.5938   -2.9761 C   0  0  0  0  0  0  0  0  0  0  0  0
   44.0556   -4.0552   -3.1657 C   0  0  0  0  0  0  0  0  0  0  0  0
   44.8467   -4.7904   -2.2801 C   0  0  0  0  0  0  0  0  0  0  0  0
   45.0140   -6.1578   -2.4492 C   0  0  0  0  0  0  0  0  0  0  0  0
   44.3960   -6.8078   -3.5043 C   0  0  0  0  0  0  0  0  0  0  0  0
   43.6036   -6.0841   -4.3967 C   0  0  0  0  0  0  0  0  0  0  0  0
   42.9571   -6.8172   -5.5138 C   0  0  0  0  0  0  0  0  0  0  0  0
   42.2086   -6.0365   -6.3070 O   0  0  0  0  0  0  0  0  0  0  0  0
   43.0759   -7.9997   -5.7092 O   0  0  0  0  0  0  0  0  0  0  0  0
   43.4342   -4.7115   -4.2259 C   0  0  0  0  0  0  0  0  0  0  0  0
   42.5778   -2.1327   -2.7360 C   0  0  0  0  0  0  0  0  0  0  0  0
   41.4127   -2.9661   -2.6112 C   0  0  0  0  0  0  0  0  0  0  0  0
   40.3589   -2.1456   -2.3779 C   0  0  0  0  0  0  0  0  0  0  0  0
   40.8715   -0.8059   -2.3457 C   0  0  0  0  0  0  0  0  0  0  0  0
   42.2201   -0.8263   -2.5625 N   0  0  0  0  0  0  0  0  0  0  0  0
   39.0350    0.1777   -2.0058 H   0  0  0  0  0  0  0  0  0  0  0  0
   38.6544    2.7523   -1.7635 H   0  0  0  0  0  0  0  0  0  0  0  0
   40.2688    4.8994   -1.7150 H   0  0  0  0  0  0  0  0  0  0  0  0
   42.0506    5.4155    0.1958 H   0  0  0  0  0  0  0  0  0  0  0  0
   41.0878    9.4457    1.9038 H   0  0  0  0  0  0  0  0  0  0  0  0
   42.3734    9.4487   -1.2111 H   0  0  0  0  0  0  0  0  0  0  0  0
   43.3128    8.6244   -3.3490 H   0  0  0  0  0  0  0  0  0  0  0  0
   43.6088    6.2041   -3.7215 H   0  0  0  0  0  0  0  0  0  0  0  0
   45.5286    5.5946   -1.9732 H   0  0  0  0  0  0  0  0  0  0  0  0
   47.6203    3.9742   -2.4325 H   0  0  0  0  0  0  0  0  0  0  0  0
   48.2240   -1.1485   -3.4653 H   0  0  0  0  0  0  0  0  0  0  0  0
   46.5940   -3.2805   -3.5659 H   0  0  0  0  0  0  0  0  0  0  0  0
   45.3202   -4.2857   -1.4454 H   0  0  0  0  0  0  0  0  0  0  0  0
   45.6277   -6.7158   -1.7512 H   0  0  0  0  0  0  0  0  0  0  0  0
   44.5156   -7.8753   -3.6509 H   0  0  0  0  0  0  0  0  0  0  0  0
   41.8235   -6.5883   -7.0071 H   0  0  0  0  0  0  0  0  0  0  0  0
   42.8293   -4.1498   -4.9278 H   0  0  0  0  0  0  0  0  0  0  0  0
   41.4104   -4.0418   -2.6822 H   0  0  0  0  0  0  0  0  0  0  0  0
   39.3241   -2.4107   -2.2287 H   0  0  0  0  0  0  0  0  0  0  0  0
   93.2648    0.7626   -1.2564 Cu  0  0  0  0  0  0  0  0  0  0  0  0
   96.5739    0.4543   -0.5075 C   0  0  0  0  0  0  0  0  0  0  0  0
   95.9199   -0.6906   -0.9353 C   0  0  0  0  0  0  0  0  0  0  0  0
   96.5476   -1.9678   -1.1180 C   0  0  0  0  0  0  0  0  0  0  0  0
   95.5846   -2.8246   -1.5375 C   0  0  0  0  0  0  0  0  0  0  0  0
   94.3564   -2.0802   -1.6043 C   0  0  0  0  0  0  0  0  0  0  0  0
   94.5915   -0.7848   -1.2404 N   0  0  0  0  0  0  0  0  0  0  0  0
   93.1227   -2.6012   -1.9976 C   0  0  0  0  0  0  0  0  0  0  0  0
   93.0597   -4.0520   -2.3058 C   0  0  0  0  0  0  0  0  0  0  0  0
   93.3524   -4.9942   -1.3238 C   0  0  0  0  0  0  0  0  0  0  0  0
   93.2924   -6.3573   -1.6106 C   0  0  0  0  0  0  0  0  0  0  0  0
   93.6135   -7.3118   -0.5197 C   0  0  0  0  0  0  0  0  0  0  0  0
   93.5165   -8.5978   -0.8866 O   0  0  0  0  0  0  0  0  0  0  0  0
   93.9343   -6.9871    0.5949 O   0  0  0  0  0  0  0  0  0  0  0  0
   92.9405   -6.7876   -2.8899 C   0  0  0  0  0  0  0  0  0  0  0  0
   92.6508   -5.8514   -3.8701 C   0  0  0  0  0  0  0  0  0  0  0  0
   92.7075   -4.4948   -3.5829 C   0  0  0  0  0  0  0  0  0  0  0  0
   91.9423   -1.8648   -2.1151 C   0  0  0  0  0  0  0  0  0  0  0  0
   90.6616   -2.4166   -2.4521 C   0  0  0  0  0  0  0  0  0  0  0  0
   89.7728   -1.3907   -2.4480 C   0  0  0  0  0  0  0  0  0  0  0  0
   91.8130   -0.5171   -1.9035 N   0  0  0  0  0  0  0  0  0  0  0  0
   90.5019   -0.2086   -2.1031 C   0  0  0  0  0  0  0  0  0  0  0  0
   89.9267    1.0698   -1.9917 C   0  0  0  0  0  0  0  0  0  0  0  0
   90.6190    2.2342   -1.6148 C   0  0  0  0  0  0  0  0  0  0  0  0
   90.0294    3.5367   -1.5568 C   0  0  0  0  0  0  0  0  0  0  0  0
   90.9983    4.3911   -1.1393 C   0  0  0  0  0  0  0  0  0  0  0  0
   92.1848    3.6119   -0.9311 C   0  0  0  0  0  0  0  0  0  0  0  0
   91.9259    2.3020   -1.2392 N   0  0  0  0  0  0  0  0  0  0  0  0
   93.4093    4.1227   -0.4962 C   0  0  0  0  0  0  0  0  0  0  0  0
   93.4685    5.5666   -0.1559 C   0  0  0  0  0  0  0  0  0  0  0  0
   92.6824    6.0831    0.8765 C   0  0  0  0  0  0  0  0  0  0  0  0
   92.7404    7.4309    1.2031 C   0  0  0  0  0  0  0  0  0  0  0  0
   93.5811    8.2797    0.5027 C   0  0  0  0  0  0  0  0  0  0  0  0
   94.3704    7.7759   -0.5323 C   0  0  0  0  0  0  0  0  0  0  0  0
   95.2589    8.7174   -1.2588 C   0  0  0  0  0  0  0  0  0  0  0  0
   95.9810    8.1354   -2.2275 O   0  0  0  0  0  0  0  0  0  0  0  0
   95.3428    9.8946   -1.0185 O   0  0  0  0  0  0  0  0  0  0  0  0
   94.3137    6.4224   -0.8588 C   0  0  0  0  0  0  0  0  0  0  0  0
   94.5814    3.3787   -0.3508 C   0  0  0  0  0  0  0  0  0  0  0  0
   95.8279    3.8895    0.1513 C   0  0  0  0  0  0  0  0  0  0  0  0
   96.7125    2.8622    0.1418 C   0  0  0  0  0  0  0  0  0  0  0  0
   96.0120    1.7121   -0.3531 C   0  0  0  0  0  0  0  0  0  0  0  0
   94.7207    2.0516   -0.6430 N   0  0  0  0  0  0  0  0  0  0  0  0
   97.6273    0.3557   -0.2673 H   0  0  0  0  0  0  0  0  0  0  0  0
   97.5945   -2.1665   -0.9512 H   0  0  0  0  0  0  0  0  0  0  0  0
   95.6911   -3.8669   -1.7914 H   0  0  0  0  0  0  0  0  0  0  0  0
   93.6153   -4.6781   -0.3202 H   0  0  0  0  0  0  0  0  0  0  0  0
   93.7402   -9.1539   -0.1227 H   0  0  0  0  0  0  0  0  0  0  0  0
   92.8961   -7.8470   -3.1116 H   0  0  0  0  0  0  0  0  0  0  0  0
   92.3799   -6.1788   -4.8675 H   0  0  0  0  0  0  0  0  0  0  0  0
   92.4915   -3.7679   -4.3580 H   0  0  0  0  0  0  0  0  0  0  0  0
   90.4669   -3.4585   -2.6486 H   0  0  0  0  0  0  0  0  0  0  0  0
   88.7146   -1.4237   -2.6522 H   0  0  0  0  0  0  0  0  0  0  0  0
   89.0062    3.7607   -1.8127 H   0  0  0  0  0  0  0  0  0  0  0  0
   90.9234    5.4572   -0.9984 H   0  0  0  0  0  0  0  0  0  0  0  0
   92.0337    5.4175    1.4349 H   0  0  0  0  0  0  0  0  0  0  0  0
   92.1276    7.8164    2.0099 H   0  0  0  0  0  0  0  0  0  0  0  0
   93.6390    9.3348    0.7449 H   0  0  0  0  0  0  0  0  0  0  0  0
   96.5315    8.8142   -2.6508 H   0  0  0  0  0  0  0  0  0  0  0  0
   94.9177    6.0363   -1.6714 H   0  0  0  0  0  0  0  0  0  0  0  0
   95.9948    4.9030    0.4788 H   0  0  0  0  0  0  0  0  0  0  0  0
   97.7461    2.8656    0.4500 H   0  0  0  0  0  0  0  0  0  0  0  0
   48.2334    1.4374   -2.8851 C   0  0  0  0  0  0  0  0  0  0  0  0
   49.4496    1.5718   -2.8668 C   0  0  0  0  0  0  0  0  0  0  0  0
   50.7844    1.6962   -2.7595 C   0  0  0  0  0  0  0  0  0  0  0  0
   51.9973    1.7882   -2.5837 C   0  0  0  0  0  0  0  0  0  0  0  0
   53.2993    1.8502   -2.2616 C   0  0  0  0  0  0  0  0  0  0  0  0
   54.4726    1.8729   -1.9038 C   0  0  0  0  0  0  0  0  0  0  0  0
   55.6989    1.8925   -1.2845 C   0  0  0  0  0  0  0  0  0  0  0  0
   57.0379    2.1450   -1.3928 C   0  0  0  0  0  0  0  0  0  0  0  0
   63.0528   -1.0892    0.3632 C   0  0  0  0  0  0  0  0  0  0  0  0
   64.2506   -0.7829   -0.1800 C   0  0  0  0  0  0  0  0  0  0  0  0
   65.4079   -0.5052   -0.5039 C   0  0  0  0  0  0  0  0  0  0  0  0
   66.7119   -0.3052   -0.7094 C   0  0  0  0  0  0  0  0  0  0  0  0
   67.9401   -0.1934   -0.7444 C   0  0  0  0  0  0  0  0  0  0  0  0
   69.2723   -0.1400   -0.6235 C   0  0  0  0  0  0  0  0  0  0  0  0
   70.4673   -0.1662   -0.3409 C   0  0  0  0  0  0  0  0  0  0  0  0
   71.7756   -0.2551    0.0779 C   0  0  0  0  0  0  0  0  0  0  0  0
   79.6716    1.1480   -2.4893 C   0  0  0  0  0  0  0  0  0  0  0  0
   80.8840    1.2564   -2.6396 C   0  0  0  0  0  0  0  0  0  0  0  0
   82.2187    1.3367   -2.7367 C   0  0  0  0  0  0  0  0  0  0  0  0
   83.4502    1.3691   -2.7527 C   0  0  0  0  0  0  0  0  0  0  0  0
   84.7859    1.3678   -2.7036 C   0  0  0  0  0  0  0  0  0  0  0  0
   86.0127    1.3326   -2.6010 C   0  0  0  0  0  0  0  0  0  0  0  0
   87.3431    1.2675   -2.4384 C   0  0  0  0  0  0  0  0  0  0  0  0
   88.5509    1.1853   -2.2509 C   0  0  0  0  0  0  0  0  0  0  0  0
   59.2249   -0.3876    0.6299 Cu  0  0  0  0  0  0  0  0  0  0  0  0
   56.2499    1.1369   -0.1863 C   0  0  0  0  0  0  0  0  0  0  0  0
   56.2175   -0.2748   -0.0334 C   0  0  0  0  0  0  0  0  0  0  0  0
   55.0434   -1.0630   -0.2025 C   0  0  0  0  0  0  0  0  0  0  0  0
   55.4074   -2.3555    0.0351 C   0  0  0  0  0  0  0  0  0  0  0  0
   56.8054   -2.3509    0.3376 C   0  0  0  0  0  0  0  0  0  0  0  0
   57.2668   -1.0492    0.3058 N   0  0  0  0  0  0  0  0  0  0  0  0
   57.5969   -3.4884    0.4868 C   0  0  0  0  0  0  0  0  0  0  0  0
   56.9050   -4.8004    0.4222 C   0  0  0  0  0  0  0  0  0  0  0  0
   55.9759   -5.1527    1.3964 C   0  0  0  0  0  0  0  0  0  0  0  0
   55.3212   -6.3824    1.3364 C   0  0  0  0  0  0  0  0  0  0  0  0
   54.3397   -6.7011    2.4035 C   0  0  0  0  0  0  0  0  0  0  0  0
   53.7705   -7.9076    2.2651 O   0  0  0  0  0  0  0  0  0  0  0  0
   54.0617   -5.9641    3.3146 O   0  0  0  0  0  0  0  0  0  0  0  0
   55.5913   -7.2680    0.2932 C   0  0  0  0  0  0  0  0  0  0  0  0
   56.5122   -6.9163   -0.6809 C   0  0  0  0  0  0  0  0  0  0  0  0
   57.1658   -5.6936   -0.6190 C   0  0  0  0  0  0  0  0  0  0  0  0
   58.9906   -3.5073    0.6239 C   0  0  0  0  0  0  0  0  0  0  0  0
   59.8249   -4.6614    0.6433 C   0  0  0  0  0  0  0  0  0  0  0  0
   61.1241   -4.2235    0.6919 C   0  0  0  0  0  0  0  0  0  0  0  0
   59.7804   -2.3840    0.7129 N   0  0  0  0  0  0  0  0  0  0  0  0
   61.0621   -2.8129    0.7311 C   0  0  0  0  0  0  0  0  0  0  0  0
   62.1002   -1.8679    0.8445 C   0  0  0  0  0  0  0  0  0  0  0  0
   62.1263   -0.5099    1.4824 C   0  0  0  0  0  0  0  0  0  0  0  0
   62.7643   -0.1129    2.7276 C   0  0  0  0  0  0  0  0  0  0  0  0
   62.1700    1.0291    3.1254 C   0  0  0  0  0  0  0  0  0  0  0  0
   61.0821    1.3015    2.2112 C   0  0  0  0  0  0  0  0  0  0  0  0
   61.0558    0.3754    1.2301 N   0  0  0  0  0  0  0  0  0  0  0  0
   60.1978    2.3898    2.3034 C   0  0  0  0  0  0  0  0  0  0  0  0
   60.4717    3.4405    3.3149 C   0  0  0  0  0  0  0  0  0  0  0  0
   60.7713    4.7449    2.9133 C   0  0  0  0  0  0  0  0  0  0  0  0
   61.0317    5.7346    3.8511 C   0  0  0  0  0  0  0  0  0  0  0  0
   61.0001    5.4361    5.2030 C   0  0  0  0  0  0  0  0  0  0  0  0
   60.7007    4.1375    5.6186 C   0  0  0  0  0  0  0  0  0  0  0  0
   60.6730    3.8572    7.0749 C   0  0  0  0  0  0  0  0  0  0  0  0
   60.3835    2.5810    7.3724 O   0  0  0  0  0  0  0  0  0  0  0  0
   60.8884    4.6775    7.9309 O   0  0  0  0  0  0  0  0  0  0  0  0
   60.4350    3.1455    4.6764 C   0  0  0  0  0  0  0  0  0  0  0  0
   59.0528    2.5139    1.5097 C   0  0  0  0  0  0  0  0  0  0  0  0
   58.1183    3.6242    1.5850 C   0  0  0  0  0  0  0  0  0  0  0  0
   57.0897    3.3479    0.7736 C   0  0  0  0  0  0  0  0  0  0  0  0
   57.3766    2.0559    0.1106 C   0  0  0  0  0  0  0  0  0  0  0  0
   58.5835    1.5764    0.6665 N   0  0  0  0  0  0  0  0  0  0  0  0
   54.0715   -0.6788   -0.4673 H   0  0  0  0  0  0  0  0  0  0  0  0
   54.7834   -3.2331   -0.0140 H   0  0  0  0  0  0  0  0  0  0  0  0
   55.7603   -4.4795    2.2188 H   0  0  0  0  0  0  0  0  0  0  0  0
   53.1462   -8.0390    2.9972 H   0  0  0  0  0  0  0  0  0  0  0  0
   55.0799   -8.2218    0.2467 H   0  0  0  0  0  0  0  0  0  0  0  0
   56.7228   -7.5975   -1.4976 H   0  0  0  0  0  0  0  0  0  0  0  0
   57.8732   -5.4183   -1.3933 H   0  0  0  0  0  0  0  0  0  0  0  0
   59.4837   -5.6840    0.6217 H   0  0  0  0  0  0  0  0  0  0  0  0
   62.0273   -4.8112    0.7139 H   0  0  0  0  0  0  0  0  0  0  0  0
   63.6094   -0.6237    3.1608 H   0  0  0  0  0  0  0  0  0  0  0  0
   62.4206    1.6361    3.9807 H   0  0  0  0  0  0  0  0  0  0  0  0
   60.8138    4.9780    1.8551 H   0  0  0  0  0  0  0  0  0  0  0  0
   61.2652    6.7410    3.5221 H   0  0  0  0  0  0  0  0  0  0  0  0
   61.2044    6.1958    5.9489 H   0  0  0  0  0  0  0  0  0  0  0  0
   60.3846    2.4832    8.3384 H   0  0  0  0  0  0  0  0  0  0  0  0
   60.1813    2.1445    5.0048 H   0  0  0  0  0  0  0  0  0  0  0  0
   58.2478    4.4909    2.2138 H   0  0  0  0  0  0  0  0  0  0  0  0
   56.2052    3.9271    0.5635 H   0  0  0  0  0  0  0  0  0  0  0  0
   75.1711    0.3472   -1.0274 Cu  0  0  0  0  0  0  0  0  0  0  0  0
   72.6166   -0.6860    1.1702 C   0  0  0  0  0  0  0  0  0  0  0  0
   72.8122   -1.4004   -0.1604 C   0  0  0  0  0  0  0  0  0  0  0  0
   72.2854   -2.7359   -0.3463 C   0  0  0  0  0  0  0  0  0  0  0  0
   73.0814   -3.3662   -1.2399 C   0  0  0  0  0  0  0  0  0  0  0  0
   74.1195   -2.4454   -1.6074 C   0  0  0  0  0  0  0  0  0  0  0  0
   73.9292   -1.2617   -0.9977 N   0  0  0  0  0  0  0  0  0  0  0  0
   75.2101   -2.7610   -2.4594 C   0  0  0  0  0  0  0  0  0  0  0  0
   75.2215   -4.1053   -3.0884 C   0  0  0  0  0  0  0  0  0  0  0  0
   75.2831   -5.2610   -2.3150 C   0  0  0  0  0  0  0  0  0  0  0  0
   75.2983   -6.5167   -2.9210 C   0  0  0  0  0  0  0  0  0  0  0  0
   75.3658   -7.7113   -2.0417 C   0  0  0  0  0  0  0  0  0  0  0  0
   75.3819   -8.8712   -2.7140 O   0  0  0  0  0  0  0  0  0  0  0  0
   75.4022   -7.6683   -0.8388 O   0  0  0  0  0  0  0  0  0  0  0  0
   75.2516   -6.6239   -4.3109 C   0  0  0  0  0  0  0  0  0  0  0  0
   75.1966   -5.4745   -5.0833 C   0  0  0  0  0  0  0  0  0  0  0  0
   75.1845   -4.2249   -4.4798 C   0  0  0  0  0  0  0  0  0  0  0  0
   76.3053   -1.9472   -2.6836 C   0  0  0  0  0  0  0  0  0  0  0  0
   77.5097   -2.3434   -3.3676 C   0  0  0  0  0  0  0  0  0  0  0  0
   78.3906   -1.3210   -3.2520 C   0  0  0  0  0  0  0  0  0  0  0  0
   76.4785   -0.6730   -2.1832 N   0  0  0  0  0  0  0  0  0  0  0  0
   77.7354   -0.2862   -2.5005 C   0  0  0  0  0  0  0  0  0  0  0  0
   78.3198    0.9565   -2.1779 C   0  0  0  0  0  0  0  0  0  0  0  0
   77.6196    2.0218   -1.5733 C   0  0  0  0  0  0  0  0  0  0  0  0
   78.0779    3.3843   -1.5671 C   0  0  0  0  0  0  0  0  0  0  0  0
   77.1175    4.1234   -0.9637 C   0  0  0  0  0  0  0  0  0  0  0  0
   76.0680    3.2172   -0.5703 C   0  0  0  0  0  0  0  0  0  0  0  0
   76.4178    1.9355   -0.9592 N   0  0  0  0  0  0  0  0  0  0  0  0
   74.9105    3.5581    0.0994 C   0  0  0  0  0  0  0  0  0  0  0  0
   74.7256    4.9622    0.5297 C   0  0  0  0  0  0  0  0  0  0  0  0
   73.5805    5.6677    0.1476 C   0  0  0  0  0  0  0  0  0  0  0  0
   73.3996    6.9873    0.5354 C   0  0  0  0  0  0  0  0  0  0  0  0
   74.3539    7.6195    1.3155 C   0  0  0  0  0  0  0  0  0  0  0  0
   75.4968    6.9238    1.7123 C   0  0  0  0  0  0  0  0  0  0  0  0
   76.4929    7.6335    2.5546 C   0  0  0  0  0  0  0  0  0  0  0  0
   77.5543    6.8814    2.8787 O   0  0  0  0  0  0  0  0  0  0  0  0
   76.3808    8.7749    2.9215 O   0  0  0  0  0  0  0  0  0  0  0  0
   75.6810    5.5998    1.3199 C   0  0  0  0  0  0  0  0  0  0  0  0
   73.8870    2.6370    0.4606 C   0  0  0  0  0  0  0  0  0  0  0  0
   72.8756    2.9166    1.4411 C   0  0  0  0  0  0  0  0  0  0  0  0
   72.1527    1.7859    1.6005 C   0  0  0  0  0  0  0  0  0  0  0  0
   72.7088    0.7832    0.7142 C   0  0  0  0  0  0  0  0  0  0  0  0
   73.7628    1.3851   -0.0041 N   0  0  0  0  0  0  0  0  0  0  0  0
   71.4136   -3.1138    0.1633 H   0  0  0  0  0  0  0  0  0  0  0  0
   72.9762   -4.3686   -1.6219 H   0  0  0  0  0  0  0  0  0  0  0  0
   75.3397   -5.1985   -1.2338 H   0  0  0  0  0  0  0  0  0  0  0  0
   75.4256   -9.5987   -2.0724 H   0  0  0  0  0  0  0  0  0  0  0  0
   75.2606   -7.6007   -4.7791 H   0  0  0  0  0  0  0  0  0  0  0  0
   75.1618   -5.5499   -6.1643 H   0  0  0  0  0  0  0  0  0  0  0  0
   75.1333   -3.3291   -5.0886 H   0  0  0  0  0  0  0  0  0  0  0  0
   77.6550   -3.2911   -3.8607 H   0  0  0  0  0  0  0  0  0  0  0  0
   79.4022   -1.2642   -3.6210 H   0  0  0  0  0  0  0  0  0  0  0  0
   79.0102    3.7176   -1.9944 H   0  0  0  0  0  0  0  0  0  0  0  0
   77.0964    5.1920   -0.8234 H   0  0  0  0  0  0  0  0  0  0  0  0
   72.8372    5.1784   -0.4720 H   0  0  0  0  0  0  0  0  0  0  0  0
   72.5098    7.5229    0.2246 H   0  0  0  0  0  0  0  0  0  0  0  0
   74.2280    8.6499    1.6280 H   0  0  0  0  0  0  0  0  0  0  0  0
   78.1535    7.4133    3.4274 H   0  0  0  0  0  0  0  0  0  0  0  0
   76.5590    5.0567    1.6488 H   0  0  0  0  0  0  0  0  0  0  0  0
   72.7689    3.8517    1.9670 H   0  0  0  0  0  0  0  0  0  0  0  0
   71.3242    1.6022    2.2657 H   0  0  0  0  0  0  0  0  0  0  0  0
  2  3  4  0  0  0  0
  3  4  1  0  0  0  0
  4  5  2  0  0  0  0
  5  6  4  0  0  0  0
  1  7  1  0  0  0  0
  3  7  4  0  0  0  0
  6  7  4  0  0  0  0
  6  8  4  0  0  0  0
  8  9  1  0  0  0  0
  9 10  4  0  0  0  0
 10 11  4  0  0  0  0
 11 12  1  0  0  0  0
 12 13  4  0  0  0  0
 12 14  2  0  0  0  0
 11 15  4  0  0  0  0
 15 16  4  0  0  0  0
  9 17  4  0  0  0  0
 16 17  4  0  0  0  0
  8 18  4  0  0  0  0
 18 19  4  0  0  0  0
 19 20  2  0  0  0  0
  1 21  1  0  0  0  0
 18 21  4  0  0  0  0
 20 22  4  0  0  0  0
 21 22  4  0  0  0  0
 22 23  4  0  0  0  0
 23 24  4  0  0  0  0
 24 25  4  0  0  0  0
 25 26  2  0  0  0  0
 26 27  4  0  0  0  0
  1 28  1  0  0  0  0
 24 28  4  0  0  0  0
 27 28  4  0  0  0  0
 27 29  4  0  0  0  0
 29 30  1  0  0  0  0
 30 31  4  0  0  0  0
 31 32  4  0  0  0  0
 32 33  4  0  0  0  0
 33 34  4  0  0  0  0
 34 35  1  0  0  0  0
 35 36  4  0  0  0  0
 35 37  2  0  0  0  0
 30 38  4  0  0  0  0
 34 38  4  0  0  0  0
 29 39  4  0  0  0  0
 39 40  4  0  0  0  0
 40 41  2  0  0  0  0
  2 42  4  0  0  0  0
 41 42  1  0  0  0  0
  1 43  1  0  0  0  0
 39 43  4  0  0  0  0
 42 43  4  0  0  0  0
  2 44  1  0  0  0  0
  4 45  1  0  0  0  0
  5 46  1  0  0  0  0
 10 47  1  0  0  0  0
 13 48  1  0  0  0  0
 15 49  1  0  0  0  0
 16 50  1  0  0  0  0
 17 51  1  0  0  0  0
 19 52  1  0  0  0  0
 20 53  1  0  0  0  0
 25 54  1  0  0  0  0
 26 55  1  0  0  0  0
 31 56  1  0  0  0  0
 32 57  1  0  0  0  0
 33 58  1  0  0  0  0
 36 59  1  0  0  0  0
 38 60  1  0  0  0  0
 40 61  1  0  0  0  0
 41 62  1  0  0  0  0
 64 65  4  0  0  0  0
 65 66  1  0  0  0  0
 66 67  2  0  0  0  0
 67 68  4  0  0  0  0
 63 69  1  0  0  0  0
 65 69  4  0  0  0  0
 68 69  4  0  0  0  0
 68 70  4  0  0  0  0
 70 71  1  0  0  0  0
 71 72  4  0  0  0  0
 72 73  4  0  0  0  0
 73 74  1  0  0  0  0
 74 75  4  0  0  0  0
 74 76  2  0  0  0  0
 73 77  4  0  0  0  0
 77 78  4  0  0  0  0
 71 79  4  0  0  0  0
 78 79  4  0  0  0  0
 70 80  4  0  0  0  0
 80 81  4  0  0  0  0
 81 82  2  0  0  0  0
 63 83  1  0  0  0  0
 80 83  4  0  0  0  0
 82 84  4  0  0  0  0
 83 84  4  0  0  0  0
 84 85  4  0  0  0  0
 85 86  4  0  0  0  0
 86 87  4  0  0  0  0
 87 88  2  0  0  0  0
 88 89  4  0  0  0  0
 63 90  1  0  0  0  0
 86 90  4  0  0  0  0
 89 90  4  0  0  0  0
 89 91  4  0  0  0  0
 91 92  1  0  0  0  0
 92 93  4  0  0  0  0
 93 94  4  0  0  0  0
 94 95  4  0  0  0  0
 95 96  4  0  0  0  0
 96 97  1  0  0  0  0
 97 98  4  0  0  0  0
 97 99  2  0  0  0  0
 92100  4  0  0  0  0
 96100  4  0  0  0  0
 91101  4  0  0  0  0
101102  4  0  0  0  0
102103  2  0  0  0  0
 64104  4  0  0  0  0
103104  1  0  0  0  0
 63105  1  0  0  0  0
101105  4  0  0  0  0
104105  4  0  0  0  0
 64106  1  0  0  0  0
 66107  1  0  0  0  0
 67108  1  0  0  0  0
 72109  1  0  0  0  0
 75110  1  0  0  0  0
 77111  1  0  0  0  0
 78112  1  0  0  0  0
 79113  1  0  0  0  0
 81114  1  0  0  0  0
 82115  1  0  0  0  0
 87116  1  0  0  0  0
 88117  1  0  0  0  0
 93118  1  0  0  0  0
 94119  1  0  0  0  0
 95120  1  0  0  0  0
 98121  1  0  0  0  0
100122  1  0  0  0  0
102123  1  0  0  0  0
103124  1  0  0  0  0
 23125  4  0  0  0  0
125126  3  0  0  0  0
126127  4  0  0  0  0
127128  3  0  0  0  0
128129  4  0  0  0  0
129130  3  0  0  0  0
130131  4  0  0  0  0
131132  2  0  0  0  0
133134  4  0  0  0  0
134135  3  0  0  0  0
135136  4  0  0  0  0
136137  3  0  0  0  0
137138  4  0  0  0  0
138139  3  0  0  0  0
139140  4  0  0  0  0
141142  3  0  0  0  0
142143  4  0  0  0  0
143144  3  0  0  0  0
144145  4  0  0  0  0
145146  3  0  0  0  0
146147  4  0  0  0  0
 85148  4  0  0  0  0
147148  3  0  0  0  0
131150  1  0  0  0  0
132150  1  0  0  0  0
150151  4  0  0  0  0
151152  4  0  0  0  0
152153  2  0  0  0  0
153154  4  0  0  0  0
149155  1  0  0  0  0
151155  4  0  0  0  0
154155  4  0  0  0  0
154156  4  0  0  0  0
156157  1  0  0  0  0
157158  4  0  0  0  0
158159  4  0  0  0  0
159160  1  0  0  0  0
160161  4  0  0  0  0
160162  2  0  0  0  0
159163  4  0  0  0  0
163164  4  0  0  0  0
157165  4  0  0  0  0
164165  4  0  0  0  0
156166  4  0  0  0  0
166167  4  0  0  0  0
167168  2  0  0  0  0
149169  1  0  0  0  0
166169  4  0  0  0  0
168170  4  0  0  0  0
169170  4  0  0  0  0
133171  2  0  0  0  0
170171  1  0  0  0  0
133172  1  0  0  0  0
171172  1  0  0  0  0
172173  1  0  0  0  0
173174  2  0  0  0  0
174175  1  0  0  0  0
149176  1  0  0  0  0
172176  1  0  0  0  0
175176  4  0  0  0  0
175177  4  0  0  0  0
177178  1  0  0  0  0
178179  4  0  0  0  0
179180  4  0  0  0  0
180181  4  0  0  0  0
181182  4  0  0  0  0
182183  1  0  0  0  0
183184  4  0  0  0  0
183185  2  0  0  0  0
178186  4  0  0  0  0
182186  4  0  0  0  0
177187  4  0  0  0  0
187188  1  0  0  0  0
188189  2  0  0  0  0
132190  1  0  0  0  0
150190  1  0  0  0  0
189190  1  0  0  0  0
149191  1  0  0  0  0
187191  4  0  0  0  0
190191  1  0  0  0  0
152192  1  0  0  0  0
153193  1  0  0  0  0
158194  1  0  0  0  0
161195  1  0  0  0  0
163196  1  0  0  0  0
164197  1  0  0  0  0
165198  1  0  0  0  0
167199  1  0  0  0  0
168200  1  0  0  0  0
173201  1  0  0  0  0
174202  1  0  0  0  0
179203  1  0  0  0  0
180204  1  0  0  0  0
181205  1  0  0  0  0
184206  1  0  0  0  0
186207  1  0  0  0  0
188208  1  0  0  0  0
189209  1  0  0  0  0
140211  1  0  0  0  0
140212  1  0  0  0  0
211212  1  0  0  0  0
212213  1  0  0  0  0
213214  2  0  0  0  0
214215  4  0  0  0  0
210216  1  0  0  0  0
212216  1  0  0  0  0
215216  4  0  0  0  0
215217  4  0  0  0  0
217218  1  0  0  0  0
218219  4  0  0  0  0
219220  4  0  0  0  0
220221  1  0  0  0  0
221222  4  0  0  0  0
221223  2  0  0  0  0
220224  4  0  0  0  0
224225  4  0  0  0  0
218226  4  0  0  0  0
225226  4  0  0  0  0
217227  4  0  0  0  0
227228  4  0  0  0  0
228229  2  0  0  0  0
210230  1  0  0  0  0
227230  4  0  0  0  0
229231  4  0  0  0  0
230231  4  0  0  0  0
141232  4  0  0  0  0
231232  4  0  0  0  0
232233  4  0  0  0  0
233234  4  0  0  0  0
234235  2  0  0  0  0
235236  4  0  0  0  0
210237  1  0  0  0  0
233237  4  0  0  0  0
236237  4  0  0  0  0
236238  4  0  0  0  0
238239  1  0  0  0  0
239240  4  0  0  0  0
240241  4  0  0  0  0
241242  4  0  0  0  0
242243  4  0  0  0  0
243244  1  0  0  0  0
244245  4  0  0  0  0
244246  2  0  0  0  0
239247  4  0  0  0  0
243247  4  0  0  0  0
238248  4  0  0  0  0
248249  1  0  0  0  0
249250  2  0  0  0  0
140251  1  0  0  0  0
211251  1  0  0  0  0
250251  1  0  0  0  0
210252  1  0  0  0  0
248252  4  0  0  0  0
251252  1  0  0  0  0
213253  1  0  0  0  0
214254  1  0  0  0  0
219255  1  0  0  0  0
222256  1  0  0  0  0
224257  1  0  0  0  0
225258  1  0  0  0  0
226259  1  0  0  0  0
228260  1  0  0  0  0
229261  1  0  0  0  0
234262  1  0  0  0  0
235263  1  0  0  0  0
240264  1  0  0  0  0
241265  1  0  0  0  0
242266  1  0  0  0  0
245267  1  0  0  0  0
247268  1  0  0  0  0
249269  1  0  0  0  0
250270  1  0  0  0  0
M  END
