 xtb: 6.5.1 (b24c23e)
          07302209433D

282321  0     0  0            999 V2000
   46.3884    0.0449   -0.1044 Zn  0  0  0  0  0  0  0  0  0  0  0  0
   42.9806    0.1284   -0.2331 C   0  0  0  0  0  0  0  0  0  0  0  0
   43.6173    1.3229    0.0825 C   0  0  0  0  0  0  0  0  0  0  0  0
   42.9508    2.5580    0.3873 C   0  0  0  0  0  0  0  0  0  0  0  0
   43.9149    3.4735    0.6571 C   0  0  0  0  0  0  0  0  0  0  0  0
   45.1837    2.8106    0.5109 C   0  0  0  0  0  0  0  0  0  0  0  0
   44.9673    1.5076    0.1689 N   0  0  0  0  0  0  0  0  0  0  0  0
   46.4369    3.4006    0.7139 C   0  0  0  0  0  0  0  0  0  0  0  0
   47.6711    2.7512    0.6073 C   0  0  0  0  0  0  0  0  0  0  0  0
   48.9542    3.3776    0.7664 C   0  0  0  0  0  0  0  0  0  0  0  0
   49.8951    2.4193    0.5672 C   0  0  0  0  0  0  0  0  0  0  0  0
   47.8576    1.4283    0.3051 N   0  0  0  0  0  0  0  0  0  0  0  0
   49.1979    1.2004    0.2793 C   0  0  0  0  0  0  0  0  0  0  0  0
   49.8213   -0.0345    0.0080 C   0  0  0  0  0  0  0  0  0  0  0  0
   49.1602   -1.2422   -0.2942 C   0  0  0  0  0  0  0  0  0  0  0  0
   49.8204   -2.4791   -0.5925 C   0  0  0  0  0  0  0  0  0  0  0  0
   48.8514   -3.3942   -0.8511 C   0  0  0  0  0  0  0  0  0  0  0  0
   47.5876   -2.7262   -0.7053 C   0  0  0  0  0  0  0  0  0  0  0  0
   46.3345   -3.3150   -0.9058 C   0  0  0  0  0  0  0  0  0  0  0  0
   46.3097   -4.7597   -1.2492 C   0  0  0  0  0  0  0  0  0  0  0  0
   45.7907   -5.1840   -2.4701 C   0  0  0  0  0  0  0  0  0  0  0  0
   45.7639   -6.5374   -2.7965 C   0  0  0  0  0  0  0  0  0  0  0  0
   45.1933   -6.9767   -4.1181 C   0  0  0  0  0  0  0  0  0  0  0  0
   46.2585   -7.4667   -1.8892 C   0  0  0  0  0  0  0  0  0  0  0  0
   46.7799   -7.0583   -0.6631 C   0  0  0  0  0  0  0  0  0  0  0  0
   47.3168   -8.0806    0.3022 C   0  0  0  0  0  0  0  0  0  0  0  0
   46.8044   -5.7053   -0.3498 C   0  0  0  0  0  0  0  0  0  0  0  0
   45.1004   -2.6602   -0.8111 C   0  0  0  0  0  0  0  0  0  0  0  0
   43.8117   -3.2791   -0.9757 C   0  0  0  0  0  0  0  0  0  0  0  0
   42.8765   -2.3137   -0.7916 C   0  0  0  0  0  0  0  0  0  0  0  0
   43.5807   -1.0958   -0.5030 C   0  0  0  0  0  0  0  0  0  0  0  0
   44.9242   -1.3391   -0.5190 N   0  0  0  0  0  0  0  0  0  0  0  0
   47.8139   -1.4172   -0.3716 N   0  0  0  0  0  0  0  0  0  0  0  0
   46.4567    4.8413    1.0751 C   0  0  0  0  0  0  0  0  0  0  0  0
   45.9707    5.7975    0.1839 C   0  0  0  0  0  0  0  0  0  0  0  0
   45.9848    7.1468    0.5184 C   0  0  0  0  0  0  0  0  0  0  0  0
   45.4829    8.1794   -0.4549 C   0  0  0  0  0  0  0  0  0  0  0  0
   46.4865    7.5378    1.7569 C   0  0  0  0  0  0  0  0  0  0  0  0
   46.9739    6.5959    2.6573 C   0  0  0  0  0  0  0  0  0  0  0  0
   47.4909    7.0245    4.0042 C   0  0  0  0  0  0  0  0  0  0  0  0
   46.9582    5.2489    2.3100 C   0  0  0  0  0  0  0  0  0  0  0  0
   41.8954    0.1514   -0.2608 H   0  0  0  0  0  0  0  0  0  0  0  0
   41.8805    2.6938    0.3979 H   0  0  0  0  0  0  0  0  0  0  0  0
   43.7836    4.5054    0.9411 H   0  0  0  0  0  0  0  0  0  0  0  0
   49.1127    4.4205    0.9894 H   0  0  0  0  0  0  0  0  0  0  0  0
   50.9680    2.5224    0.6055 H   0  0  0  0  0  0  0  0  0  0  0  0
   50.8895   -2.6202   -0.6072 H   0  0  0  0  0  0  0  0  0  0  0  0
   48.9795   -4.4280   -1.1292 H   0  0  0  0  0  0  0  0  0  0  0  0
   45.4198   -4.4498   -3.1771 H   0  0  0  0  0  0  0  0  0  0  0  0
   45.3571   -8.0418   -4.2808 H   0  0  0  0  0  0  0  0  0  0  0  0
   44.1190   -6.7835   -4.1454 H   0  0  0  0  0  0  0  0  0  0  0  0
   45.6549   -6.4219   -4.9364 H   0  0  0  0  0  0  0  0  0  0  0  0
   46.2394   -8.5232   -2.1361 H   0  0  0  0  0  0  0  0  0  0  0  0
   47.5621   -7.6229    1.2603 H   0  0  0  0  0  0  0  0  0  0  0  0
   46.5834   -8.8712    0.4685 H   0  0  0  0  0  0  0  0  0  0  0  0
   48.2206   -8.5404   -0.1030 H   0  0  0  0  0  0  0  0  0  0  0  0
   47.1946   -5.3756    0.6069 H   0  0  0  0  0  0  0  0  0  0  0  0
   43.6477   -4.3227   -1.1922 H   0  0  0  0  0  0  0  0  0  0  0  0
   41.8027   -2.4082   -0.8373 H   0  0  0  0  0  0  0  0  0  0  0  0
   45.5941    5.4815   -0.7829 H   0  0  0  0  0  0  0  0  0  0  0  0
   44.9570    8.9793    0.0673 H   0  0  0  0  0  0  0  0  0  0  0  0
   44.8088    7.7316   -1.1851 H   0  0  0  0  0  0  0  0  0  0  0  0
   46.3239    8.6228   -0.9929 H   0  0  0  0  0  0  0  0  0  0  0  0
   46.4973    8.5900    2.0223 H   0  0  0  0  0  0  0  0  0  0  0  0
   46.6817    6.9984    4.7377 H   0  0  0  0  0  0  0  0  0  0  0  0
   47.8812    8.0417    3.9655 H   0  0  0  0  0  0  0  0  0  0  0  0
   48.2805    6.3556    4.3474 H   0  0  0  0  0  0  0  0  0  0  0  0
   47.3238    4.5044    3.0088 H   0  0  0  0  0  0  0  0  0  0  0  0
   86.8366    0.0458   -0.0941 Zn  0  0  0  0  0  0  0  0  0  0  0  0
   90.2426    0.1624   -0.2199 C   0  0  0  0  0  0  0  0  0  0  0  0
   89.6077   -0.5108   -1.2568 C   0  0  0  0  0  0  0  0  0  0  0  0
   90.2761   -1.1788   -2.3385 C   0  0  0  0  0  0  0  0  0  0  0  0
   89.3140   -1.7290   -3.1207 C   0  0  0  0  0  0  0  0  0  0  0  0
   88.0441   -1.3956   -2.5312 C   0  0  0  0  0  0  0  0  0  0  0  0
   88.2584   -0.6623   -1.4007 N   0  0  0  0  0  0  0  0  0  0  0  0
   86.7928   -1.7868   -3.0219 C   0  0  0  0  0  0  0  0  0  0  0  0
   85.5584   -1.4968   -2.4308 C   0  0  0  0  0  0  0  0  0  0  0  0
   84.2759   -1.8602   -2.9680 C   0  0  0  0  0  0  0  0  0  0  0  0
   83.3342   -1.3785   -2.1174 C   0  0  0  0  0  0  0  0  0  0  0  0
   85.3705   -0.7940   -1.2709 N   0  0  0  0  0  0  0  0  0  0  0  0
   84.0296   -0.7100   -1.0566 C   0  0  0  0  0  0  0  0  0  0  0  0
   83.4047   -0.0501    0.0191 C   0  0  0  0  0  0  0  0  0  0  0  0
   84.0614    0.6369    1.0579 C   0  0  0  0  0  0  0  0  0  0  0  0
   83.3994    1.3177    2.1322 C   0  0  0  0  0  0  0  0  0  0  0  0
   84.3672    1.8465    2.9235 C   0  0  0  0  0  0  0  0  0  0  0  0
   85.6323    1.4892    2.3428 C   0  0  0  0  0  0  0  0  0  0  0  0
   86.8847    1.8542    2.8487 C   0  0  0  0  0  0  0  0  0  0  0  0
   86.9047    2.6165    4.1233 C   0  0  0  0  0  0  0  0  0  0  0  0
   87.4240    3.9081    4.1667 C   0  0  0  0  0  0  0  0  0  0  0  0
   87.4431    4.6239    5.3612 C   0  0  0  0  0  0  0  0  0  0  0  0
   88.0098    6.0181    5.3884 C   0  0  0  0  0  0  0  0  0  0  0  0
   86.9421    4.0353    6.5161 C   0  0  0  0  0  0  0  0  0  0  0  0
   86.4219    2.7427    6.4898 C   0  0  0  0  0  0  0  0  0  0  0  0
   85.8796    2.1257    7.7509 C   0  0  0  0  0  0  0  0  0  0  0  0
   86.4033    2.0404    5.2916 C   0  0  0  0  0  0  0  0  0  0  0  0
   88.1198    1.5600    2.2590 C   0  0  0  0  0  0  0  0  0  0  0  0
   89.4079    1.9077    2.7987 C   0  0  0  0  0  0  0  0  0  0  0  0
   90.3440    1.4404    1.9352 C   0  0  0  0  0  0  0  0  0  0  0  0
   89.6412    0.7915    0.8638 C   0  0  0  0  0  0  0  0  0  0  0  0
   88.2976    0.8777    1.0908 N   0  0  0  0  0  0  0  0  0  0  0  0
   85.4083    0.7613    1.2052 N   0  0  0  0  0  0  0  0  0  0  0  0
   86.7734   -2.5752   -4.2806 C   0  0  0  0  0  0  0  0  0  0  0  0
   87.2532   -2.0190   -5.4658 C   0  0  0  0  0  0  0  0  0  0  0  0
   87.2349   -2.7505   -6.6482 C   0  0  0  0  0  0  0  0  0  0  0  0
   87.7300   -2.1389   -7.9311 C   0  0  0  0  0  0  0  0  0  0  0  0
   86.7336   -4.0492   -6.6395 C   0  0  0  0  0  0  0  0  0  0  0  0
   86.2520   -4.6187   -5.4650 C   0  0  0  0  0  0  0  0  0  0  0  0
   85.7329   -6.0314   -5.4600 C   0  0  0  0  0  0  0  0  0  0  0  0
   86.2740   -3.8766   -4.2886 C   0  0  0  0  0  0  0  0  0  0  0  0
   91.3275    0.1885   -0.2529 H   0  0  0  0  0  0  0  0  0  0  0  0
   91.3463   -1.2215   -2.4684 H   0  0  0  0  0  0  0  0  0  0  0  0
   89.4473   -2.3197   -4.0130 H   0  0  0  0  0  0  0  0  0  0  0  0
   84.1180   -2.4027   -3.8863 H   0  0  0  0  0  0  0  0  0  0  0  0
   82.2617   -1.4585   -2.1981 H   0  0  0  0  0  0  0  0  0  0  0  0
   82.3300    1.3823    2.2554 H   0  0  0  0  0  0  0  0  0  0  0  0
   84.2384    2.4384    3.8154 H   0  0  0  0  0  0  0  0  0  0  0  0
   87.8001    4.3638    3.2572 H   0  0  0  0  0  0  0  0  0  0  0  0
   87.8664    6.4798    6.3651 H   0  0  0  0  0  0  0  0  0  0  0  0
   89.0794    5.9935    5.1702 H   0  0  0  0  0  0  0  0  0  0  0  0
   87.5273    6.6401    4.6328 H   0  0  0  0  0  0  0  0  0  0  0  0
   86.9559    4.5866    7.4508 H   0  0  0  0  0  0  0  0  0  0  0  0
   85.6346    1.0748    7.5978 H   0  0  0  0  0  0  0  0  0  0  0  0
   86.6100    2.2016    8.5579 H   0  0  0  0  0  0  0  0  0  0  0  0
   84.9749    2.6496    8.0660 H   0  0  0  0  0  0  0  0  0  0  0  0
   86.0132    1.0291    5.2601 H   0  0  0  0  0  0  0  0  0  0  0  0
   89.5705    2.4327    3.7264 H   0  0  0  0  0  0  0  0  0  0  0  0
   91.4176    1.5154    2.0109 H   0  0  0  0  0  0  0  0  0  0  0  0
   87.6276   -1.0011   -5.4633 H   0  0  0  0  0  0  0  0  0  0  0  0
   88.2353   -2.8848   -8.5455 H   0  0  0  0  0  0  0  0  0  0  0  0
   88.4205   -1.3195   -7.7311 H   0  0  0  0  0  0  0  0  0  0  0  0
   86.8877   -1.7436   -8.5036 H   0  0  0  0  0  0  0  0  0  0  0  0
   86.7176   -4.6236   -7.5601 H   0  0  0  0  0  0  0  0  0  0  0  0
   86.5446   -6.7246   -5.2277 H   0  0  0  0  0  0  0  0  0  0  0  0
   85.3263   -6.2995   -6.4354 H   0  0  0  0  0  0  0  0  0  0  0  0
   84.9549   -6.1561   -4.7064 H   0  0  0  0  0  0  0  0  0  0  0  0
   85.9139   -4.3147   -3.3640 H   0  0  0  0  0  0  0  0  0  0  0  0
   52.4490   -0.0760    0.0342 C   0  0  0  0  0  0  0  0  0  0  0  0
   51.2268   -0.0597    0.0269 C   0  0  0  0  0  0  0  0  0  0  0  0
   53.7985   -0.0878    0.0378 C   0  0  0  0  0  0  0  0  0  0  0  0
   55.0209   -0.0917    0.0364 C   0  0  0  0  0  0  0  0  0  0  0  0
   65.9347   -0.0715    0.0033 C   0  0  0  0  0  0  0  0  0  0  0  0
   64.7120   -0.0706    0.0016 C   0  0  0  0  0  0  0  0  0  0  0  0
   67.2837   -0.0727    0.0071 C   0  0  0  0  0  0  0  0  0  0  0  0
   68.5063   -0.0760    0.0116 C   0  0  0  0  0  0  0  0  0  0  0  0
   79.4225   -0.0971    0.0757 C   0  0  0  0  0  0  0  0  0  0  0  0
   78.2012   -0.1062    0.0783 C   0  0  0  0  0  0  0  0  0  0  0  0
   80.7748   -0.0848    0.0681 C   0  0  0  0  0  0  0  0  0  0  0  0
   81.9958   -0.0684    0.0488 C   0  0  0  0  0  0  0  0  0  0  0  0
   59.8674   -0.0824    0.0140 Zn  0  0  0  0  0  0  0  0  0  0  0  0
   56.4262   -0.0909    0.0318 C   0  0  0  0  0  0  0  0  0  0  0  0
   57.0673    1.1604   -0.0741 C   0  0  0  0  0  0  0  0  0  0  0  0
   56.3874    2.4195   -0.1460 C   0  0  0  0  0  0  0  0  0  0  0  0
   57.3411    3.3797   -0.2587 C   0  0  0  0  0  0  0  0  0  0  0  0
   58.6133    2.7137   -0.2647 C   0  0  0  0  0  0  0  0  0  0  0  0
   58.4100    1.3653   -0.1394 N   0  0  0  0  0  0  0  0  0  0  0  0
   59.8568    3.3473   -0.3651 C   0  0  0  0  0  0  0  0  0  0  0  0
   61.1045    2.7164   -0.3178 C   0  0  0  0  0  0  0  0  0  0  0  0
   62.3733    3.3727   -0.4643 C   0  0  0  0  0  0  0  0  0  0  0  0
   63.3326    2.4174   -0.3580 C   0  0  0  0  0  0  0  0  0  0  0  0
   61.3157    1.3745   -0.1423 N   0  0  0  0  0  0  0  0  0  0  0  0
   62.6596    1.1686   -0.1569 C   0  0  0  0  0  0  0  0  0  0  0  0
   63.3074   -0.0736    0.0025 C   0  0  0  0  0  0  0  0  0  0  0  0
   62.6667   -1.3196    0.1624 C   0  0  0  0  0  0  0  0  0  0  0  0
   63.3472   -2.5663    0.3512 C   0  0  0  0  0  0  0  0  0  0  0  0
   62.3933   -3.5269    0.4583 C   0  0  0  0  0  0  0  0  0  0  0  0
   61.1203   -2.8756    0.3267 C   0  0  0  0  0  0  0  0  0  0  0  0
   59.8764   -3.5129    0.3838 C   0  0  0  0  0  0  0  0  0  0  0  0
   59.8803   -4.9890    0.5516 C   0  0  0  0  0  0  0  0  0  0  0  0
   59.3259   -5.5665    1.6921 C   0  0  0  0  0  0  0  0  0  0  0  0
   59.3278   -6.9481    1.8578 C   0  0  0  0  0  0  0  0  0  0  0  0
   58.7491   -7.5597    3.1053 C   0  0  0  0  0  0  0  0  0  0  0  0
   59.8863   -7.7520    0.8699 C   0  0  0  0  0  0  0  0  0  0  0  0
   60.4407   -7.1901   -0.2776 C   0  0  0  0  0  0  0  0  0  0  0  0
   61.0476   -8.0762   -1.3320 C   0  0  0  0  0  0  0  0  0  0  0  0
   60.4381   -5.8086   -0.4296 C   0  0  0  0  0  0  0  0  0  0  0  0
   58.6288   -2.8854    0.3011 C   0  0  0  0  0  0  0  0  0  0  0  0
   57.3598   -3.5575    0.3098 C   0  0  0  0  0  0  0  0  0  0  0  0
   56.4002   -2.6017    0.2096 C   0  0  0  0  0  0  0  0  0  0  0  0
   57.0733   -1.3393    0.1310 C   0  0  0  0  0  0  0  0  0  0  0  0
   58.4177   -1.5377    0.1808 N   0  0  0  0  0  0  0  0  0  0  0  0
   61.3237   -1.5318    0.1570 N   0  0  0  0  0  0  0  0  0  0  0  0
   59.8498    4.8220   -0.5433 C   0  0  0  0  0  0  0  0  0  0  0  0
   60.4244    5.6528    0.4169 C   0  0  0  0  0  0  0  0  0  0  0  0
   60.4154    7.0344    0.2532 C   0  0  0  0  0  0  0  0  0  0  0  0
   61.0510    7.9230    1.2884 C   0  0  0  0  0  0  0  0  0  0  0  0
   59.8310    7.5827   -0.8840 C   0  0  0  0  0  0  0  0  0  0  0  0
   59.2534    6.7663   -1.8525 C   0  0  0  0  0  0  0  0  0  0  0  0
   58.6408    7.3709   -3.0871 C   0  0  0  0  0  0  0  0  0  0  0  0
   59.2650    5.3873   -1.6762 C   0  0  0  0  0  0  0  0  0  0  0  0
   55.3171    2.5463   -0.1085 H   0  0  0  0  0  0  0  0  0  0  0  0
   57.1974    4.4464   -0.3204 H   0  0  0  0  0  0  0  0  0  0  0  0
   62.5112    4.4279   -0.6373 H   0  0  0  0  0  0  0  0  0  0  0  0
   64.4025    2.5394   -0.4174 H   0  0  0  0  0  0  0  0  0  0  0  0
   64.4181   -2.6837    0.4013 H   0  0  0  0  0  0  0  0  0  0  0  0
   62.5373   -4.5827    0.6224 H   0  0  0  0  0  0  0  0  0  0  0  0
   58.9027   -4.9290    2.4608 H   0  0  0  0  0  0  0  0  0  0  0  0
   58.4426   -8.5907    2.9279 H   0  0  0  0  0  0  0  0  0  0  0  0
   59.4976   -7.5584    3.9010 H   0  0  0  0  0  0  0  0  0  0  0  0
   57.8868   -6.9892    3.4518 H   0  0  0  0  0  0  0  0  0  0  0  0
   59.8880   -8.8303    0.9919 H   0  0  0  0  0  0  0  0  0  0  0  0
   61.2134   -7.5252   -2.2576 H   0  0  0  0  0  0  0  0  0  0  0  0
   60.3969   -8.9267   -1.5401 H   0  0  0  0  0  0  0  0  0  0  0  0
   62.0082   -8.4639   -0.9857 H   0  0  0  0  0  0  0  0  0  0  0  0
   60.8550   -5.3594   -1.3243 H   0  0  0  0  0  0  0  0  0  0  0  0
   57.2224   -4.6250    0.3730 H   0  0  0  0  0  0  0  0  0  0  0  0
   55.3301   -2.7331    0.1846 H   0  0  0  0  0  0  0  0  0  0  0  0
   60.8640    5.2153    1.3067 H   0  0  0  0  0  0  0  0  0  0  0  0
   60.6029    8.9167    1.2768 H   0  0  0  0  0  0  0  0  0  0  0  0
   62.1185    8.0283    1.0816 H   0  0  0  0  0  0  0  0  0  0  0  0
   60.9403    7.4969    2.2859 H   0  0  0  0  0  0  0  0  0  0  0  0
   59.8215    8.6597   -1.0165 H   0  0  0  0  0  0  0  0  0  0  0  0
   58.1667    8.3254   -2.8565 H   0  0  0  0  0  0  0  0  0  0  0  0
   57.8965    6.7022   -3.5198 H   0  0  0  0  0  0  0  0  0  0  0  0
   59.4152    7.5498   -3.8366 H   0  0  0  0  0  0  0  0  0  0  0  0
   58.8285    4.7402   -2.4292 H   0  0  0  0  0  0  0  0  0  0  0  0
   73.3521   -0.0927    0.0422 Zn  0  0  0  0  0  0  0  0  0  0  0  0
   69.9111   -0.0805    0.0186 C   0  0  0  0  0  0  0  0  0  0  0  0
   70.5605    1.1652   -0.1012 C   0  0  0  0  0  0  0  0  0  0  0  0
   69.8888    2.4269   -0.2014 C   0  0  0  0  0  0  0  0  0  0  0  0
   70.8497    3.3811   -0.3027 C   0  0  0  0  0  0  0  0  0  0  0  0
   72.1184    2.7087   -0.2729 C   0  0  0  0  0  0  0  0  0  0  0  0
   71.9052    1.3622   -0.1416 N   0  0  0  0  0  0  0  0  0  0  0  0
   73.3669    3.3355   -0.3408 C   0  0  0  0  0  0  0  0  0  0  0  0
   74.6101    2.6986   -0.2621 C   0  0  0  0  0  0  0  0  0  0  0  0
   75.8849    3.3507   -0.3746 C   0  0  0  0  0  0  0  0  0  0  0  0
   76.8374    2.3906   -0.2555 C   0  0  0  0  0  0  0  0  0  0  0  0
   74.8111    1.3553   -0.0906 N   0  0  0  0  0  0  0  0  0  0  0  0
   76.1549    1.1427   -0.0793 C   0  0  0  0  0  0  0  0  0  0  0  0
   76.7924   -0.1041    0.0709 C   0  0  0  0  0  0  0  0  0  0  0  0
   76.1448   -1.3467    0.2108 C   0  0  0  0  0  0  0  0  0  0  0  0
   76.8161   -2.5990    0.3984 C   0  0  0  0  0  0  0  0  0  0  0  0
   75.8554   -3.5530    0.5003 C   0  0  0  0  0  0  0  0  0  0  0  0
   74.5870   -2.8926    0.3656 C   0  0  0  0  0  0  0  0  0  0  0  0
   73.3383   -3.5212    0.4219 C   0  0  0  0  0  0  0  0  0  0  0  0
   73.3305   -4.9969    0.5924 C   0  0  0  0  0  0  0  0  0  0  0  0
   72.7649   -5.5685    1.7307 C   0  0  0  0  0  0  0  0  0  0  0  0
   72.7513   -6.9497    1.8965 C   0  0  0  0  0  0  0  0  0  0  0  0
   72.1581   -7.5554    3.1401 C   0  0  0  0  0  0  0  0  0  0  0  0
   73.3069   -7.7598    0.9115 C   0  0  0  0  0  0  0  0  0  0  0  0
   73.8730   -7.2042   -0.2327 C   0  0  0  0  0  0  0  0  0  0  0  0
   74.4822   -8.0923   -1.2840 C   0  0  0  0  0  0  0  0  0  0  0  0
   73.8849   -5.8223   -0.3852 C   0  0  0  0  0  0  0  0  0  0  0  0
   72.0952   -2.8855    0.3348 C   0  0  0  0  0  0  0  0  0  0  0  0
   70.8216   -3.5491    0.3445 C   0  0  0  0  0  0  0  0  0  0  0  0
   69.8688   -2.5881    0.2329 C   0  0  0  0  0  0  0  0  0  0  0  0
   70.5505   -1.3308    0.1450 C   0  0  0  0  0  0  0  0  0  0  0  0
   71.8931   -1.5373    0.2035 N   0  0  0  0  0  0  0  0  0  0  0  0
   74.7996   -1.5506    0.1985 N   0  0  0  0  0  0  0  0  0  0  0  0
   73.3735    4.8110   -0.5134 C   0  0  0  0  0  0  0  0  0  0  0  0
   73.9177    5.6329    0.4722 C   0  0  0  0  0  0  0  0  0  0  0  0
   73.9228    7.0151    0.3164 C   0  0  0  0  0  0  0  0  0  0  0  0
   74.5250    7.8952    1.3784 C   0  0  0  0  0  0  0  0  0  0  0  0
   73.3840    7.5732   -0.8388 C   0  0  0  0  0  0  0  0  0  0  0  0
   72.8377    6.7659   -1.8324 C   0  0  0  0  0  0  0  0  0  0  0  0
   72.2758    7.3791   -3.0867 C   0  0  0  0  0  0  0  0  0  0  0  0
   72.8341    5.3856   -1.6635 C   0  0  0  0  0  0  0  0  0  0  0  0
   68.8186    2.5592   -0.1882 H   0  0  0  0  0  0  0  0  0  0  0  0
   70.7134    4.4478   -0.3791 H   0  0  0  0  0  0  0  0  0  0  0  0
   76.0308    4.4067   -0.5355 H   0  0  0  0  0  0  0  0  0  0  0  0
   77.9088    2.5085   -0.2908 H   0  0  0  0  0  0  0  0  0  0  0  0
   77.8860   -2.7233    0.4527 H   0  0  0  0  0  0  0  0  0  0  0  0
   75.9913   -4.6100    0.6635 H   0  0  0  0  0  0  0  0  0  0  0  0
   72.3442   -4.9263    2.4969 H   0  0  0  0  0  0  0  0  0  0  0  0
   71.8307   -8.5789    2.9570 H   0  0  0  0  0  0  0  0  0  0  0  0
   72.9051   -7.5736    3.9369 H   0  0  0  0  0  0  0  0  0  0  0  0
   71.3071   -6.9691    3.4881 H   0  0  0  0  0  0  0  0  0  0  0  0
   73.2959   -8.8381    1.0340 H   0  0  0  0  0  0  0  0  0  0  0  0
   74.5199   -7.5854   -2.2483 H   0  0  0  0  0  0  0  0  0  0  0  0
   73.9094   -9.0140   -1.3914 H   0  0  0  0  0  0  0  0  0  0  0  0
   75.5023   -8.3593   -0.9987 H   0  0  0  0  0  0  0  0  0  0  0  0
   74.3101   -5.3782   -1.2787 H   0  0  0  0  0  0  0  0  0  0  0  0
   70.6766   -4.6151    0.4155 H   0  0  0  0  0  0  0  0  0  0  0  0
   68.7980   -2.7130    0.2047 H   0  0  0  0  0  0  0  0  0  0  0  0
   74.3221    5.1871    1.3744 H   0  0  0  0  0  0  0  0  0  0  0  0
   74.0415    8.8722    1.3942 H   0  0  0  0  0  0  0  0  0  0  0  0
   75.5881    8.0453    1.1764 H   0  0  0  0  0  0  0  0  0  0  0  0
   74.4287    7.4370    2.3630 H   0  0  0  0  0  0  0  0  0  0  0  0
   73.3864    8.6511   -0.9651 H   0  0  0  0  0  0  0  0  0  0  0  0
   71.8464    8.3598   -2.8806 H   0  0  0  0  0  0  0  0  0  0  0  0
   71.5063    6.7404   -3.5206 H   0  0  0  0  0  0  0  0  0  0  0  0
   73.0700    7.5052   -3.8262 H   0  0  0  0  0  0  0  0  0  0  0  0
   72.4213    4.7454   -2.4356 H   0  0  0  0  0  0  0  0  0  0  0  0
  2  3  4  0  0  0  0
  3  4  1  0  0  0  0
  4  5  2  0  0  0  0
  5  6  4  0  0  0  0
  1  7  1  0  0  0  0
  3  7  4  0  0  0  0
  6  7  4  0  0  0  0
  6  8  4  0  0  0  0
  8  9  4  0  0  0  0
  9 10  4  0  0  0  0
 10 11  2  0  0  0  0
  1 12  1  0  0  0  0
  9 12  4  0  0  0  0
 11 13  4  0  0  0  0
 12 13  4  0  0  0  0
 13 14  4  0  0  0  0
 14 15  4  0  0  0  0
 15 16  4  0  0  0  0
 16 17  2  0  0  0  0
 17 18  4  0  0  0  0
 18 19  4  0  0  0  0
 19 20  1  0  0  0  0
 20 21  4  0  0  0  0
 21 22  4  0  0  0  0
 22 23  1  0  0  0  0
 22 24  4  0  0  0  0
 24 25  4  0  0  0  0
 25 26  1  0  0  0  0
 20 27  4  0  0  0  0
 25 27  4  0  0  0  0
 19 28  4  0  0  0  0
 28 29  4  0  0  0  0
 29 30  2  0  0  0  0
  2 31  4  0  0  0  0
 30 31  1  0  0  0  0
  1 32  1  0  0  0  0
 28 32  4  0  0  0  0
 31 32  4  0  0  0  0
  1 33  1  0  0  0  0
 15 33  4  0  0  0  0
 18 33  4  0  0  0  0
  8 34  1  0  0  0  0
 34 35  4  0  0  0  0
 35 36  4  0  0  0  0
 36 37  1  0  0  0  0
 36 38  4  0  0  0  0
 38 39  4  0  0  0  0
 39 40  1  0  0  0  0
 34 41  4  0  0  0  0
 39 41  4  0  0  0  0
  2 42  1  0  0  0  0
  4 43  1  0  0  0  0
  5 44  1  0  0  0  0
 10 45  1  0  0  0  0
 11 46  1  0  0  0  0
 16 47  1  0  0  0  0
 17 48  1  0  0  0  0
 21 49  1  0  0  0  0
 23 50  1  0  0  0  0
 23 51  1  0  0  0  0
 23 52  1  0  0  0  0
 24 53  1  0  0  0  0
 26 54  1  0  0  0  0
 26 55  1  0  0  0  0
 26 56  1  0  0  0  0
 27 57  1  0  0  0  0
 29 58  1  0  0  0  0
 30 59  1  0  0  0  0
 35 60  1  0  0  0  0
 37 61  1  0  0  0  0
 37 62  1  0  0  0  0
 37 63  1  0  0  0  0
 38 64  1  0  0  0  0
 40 65  1  0  0  0  0
 40 66  1  0  0  0  0
 40 67  1  0  0  0  0
 41 68  1  0  0  0  0
 70 71  4  0  0  0  0
 71 72  1  0  0  0  0
 72 73  2  0  0  0  0
 73 74  4  0  0  0  0
 69 75  1  0  0  0  0
 71 75  4  0  0  0  0
 74 75  4  0  0  0  0
 74 76  4  0  0  0  0
 76 77  4  0  0  0  0
 77 78  4  0  0  0  0
 78 79  2  0  0  0  0
 69 80  1  0  0  0  0
 77 80  4  0  0  0  0
 79 81  4  0  0  0  0
 80 81  4  0  0  0  0
 81 82  4  0  0  0  0
 82 83  4  0  0  0  0
 83 84  4  0  0  0  0
 84 85  2  0  0  0  0
 85 86  4  0  0  0  0
 86 87  4  0  0  0  0
 87 88  1  0  0  0  0
 88 89  4  0  0  0  0
 89 90  4  0  0  0  0
 90 91  1  0  0  0  0
 90 92  4  0  0  0  0
 92 93  4  0  0  0  0
 93 94  1  0  0  0  0
 88 95  4  0  0  0  0
 93 95  4  0  0  0  0
 87 96  4  0  0  0  0
 96 97  4  0  0  0  0
 97 98  2  0  0  0  0
 70 99  4  0  0  0  0
 98 99  1  0  0  0  0
 69100  1  0  0  0  0
 96100  4  0  0  0  0
 99100  4  0  0  0  0
 69101  1  0  0  0  0
 83101  4  0  0  0  0
 86101  4  0  0  0  0
 76102  1  0  0  0  0
102103  4  0  0  0  0
103104  4  0  0  0  0
104105  1  0  0  0  0
104106  4  0  0  0  0
106107  4  0  0  0  0
107108  1  0  0  0  0
102109  4  0  0  0  0
107109  4  0  0  0  0
 70110  1  0  0  0  0
 72111  1  0  0  0  0
 73112  1  0  0  0  0
 78113  1  0  0  0  0
 79114  1  0  0  0  0
 84115  1  0  0  0  0
 85116  1  0  0  0  0
 89117  1  0  0  0  0
 91118  1  0  0  0  0
 91119  1  0  0  0  0
 91120  1  0  0  0  0
 92121  1  0  0  0  0
 94122  1  0  0  0  0
 94123  1  0  0  0  0
 94124  1  0  0  0  0
 95125  1  0  0  0  0
 97126  1  0  0  0  0
 98127  1  0  0  0  0
103128  1  0  0  0  0
105129  1  0  0  0  0
105130  1  0  0  0  0
105131  1  0  0  0  0
106132  1  0  0  0  0
108133  1  0  0  0  0
108134  1  0  0  0  0
108135  1  0  0  0  0
109136  1  0  0  0  0
 14138  4  0  0  0  0
137138  3  0  0  0  0
137139  4  0  0  0  0
139140  3  0  0  0  0
141142  3  0  0  0  0
141143  4  0  0  0  0
143144  3  0  0  0  0
145146  3  0  0  0  0
145147  4  0  0  0  0
 82148  4  0  0  0  0
147148  3  0  0  0  0
140150  4  0  0  0  0
150151  4  0  0  0  0
151152  4  0  0  0  0
152153  2  0  0  0  0
153154  4  0  0  0  0
149155  1  0  0  0  0
151155  4  0  0  0  0
154155  4  0  0  0  0
154156  4  0  0  0  0
156157  4  0  0  0  0
157158  4  0  0  0  0
158159  2  0  0  0  0
149160  1  0  0  0  0
157160  4  0  0  0  0
159161  4  0  0  0  0
160161  4  0  0  0  0
142162  4  0  0  0  0
161162  4  0  0  0  0
162163  4  0  0  0  0
163164  4  0  0  0  0
164165  2  0  0  0  0
165166  4  0  0  0  0
166167  4  0  0  0  0
167168  1  0  0  0  0
168169  4  0  0  0  0
169170  4  0  0  0  0
170171  1  0  0  0  0
170172  4  0  0  0  0
172173  4  0  0  0  0
173174  1  0  0  0  0
168175  4  0  0  0  0
173175  4  0  0  0  0
167176  4  0  0  0  0
176177  4  0  0  0  0
177178  2  0  0  0  0
150179  4  0  0  0  0
178179  4  0  0  0  0
149180  1  0  0  0  0
176180  4  0  0  0  0
179180  4  0  0  0  0
149181  1  0  0  0  0
163181  4  0  0  0  0
166181  4  0  0  0  0
156182  1  0  0  0  0
182183  4  0  0  0  0
183184  4  0  0  0  0
184185  1  0  0  0  0
184186  4  0  0  0  0
186187  4  0  0  0  0
187188  1  0  0  0  0
182189  4  0  0  0  0
187189  4  0  0  0  0
152190  1  0  0  0  0
153191  1  0  0  0  0
158192  1  0  0  0  0
159193  1  0  0  0  0
164194  1  0  0  0  0
165195  1  0  0  0  0
169196  1  0  0  0  0
171197  1  0  0  0  0
171198  1  0  0  0  0
171199  1  0  0  0  0
172200  1  0  0  0  0
174201  1  0  0  0  0
174202  1  0  0  0  0
174203  1  0  0  0  0
175204  1  0  0  0  0
177205  1  0  0  0  0
178206  1  0  0  0  0
183207  1  0  0  0  0
185208  1  0  0  0  0
185209  1  0  0  0  0
185210  1  0  0  0  0
186211  1  0  0  0  0
188212  1  0  0  0  0
188213  1  0  0  0  0
188214  1  0  0  0  0
189215  1  0  0  0  0
144217  4  0  0  0  0
217218  4  0  0  0  0
218219  4  0  0  0  0
219220  2  0  0  0  0
220221  4  0  0  0  0
216222  1  0  0  0  0
218222  4  0  0  0  0
221222  4  0  0  0  0
221223  4  0  0  0  0
223224  4  0  0  0  0
224225  4  0  0  0  0
225226  2  0  0  0  0
216227  1  0  0  0  0
224227  4  0  0  0  0
226228  4  0  0  0  0
227228  4  0  0  0  0
146229  4  0  0  0  0
228229  4  0  0  0  0
229230  4  0  0  0  0
230231  4  0  0  0  0
231232  2  0  0  0  0
232233  4  0  0  0  0
233234  4  0  0  0  0
234235  1  0  0  0  0
235236  4  0  0  0  0
236237  4  0  0  0  0
237238  1  0  0  0  0
237239  4  0  0  0  0
239240  4  0  0  0  0
240241  1  0  0  0  0
235242  4  0  0  0  0
240242  4  0  0  0  0
234243  4  0  0  0  0
243244  4  0  0  0  0
244245  2  0  0  0  0
217246  4  0  0  0  0
245246  4  0  0  0  0
216247  1  0  0  0  0
243247  4  0  0  0  0
246247  4  0  0  0  0
216248  1  0  0  0  0
230248  4  0  0  0  0
233248  4  0  0  0  0
223249  1  0  0  0  0
249250  4  0  0  0  0
250251  4  0  0  0  0
251252  1  0  0  0  0
251253  4  0  0  0  0
253254  4  0  0  0  0
254255  1  0  0  0  0
249256  4  0  0  0  0
254256  4  0  0  0  0
219257  1  0  0  0  0
220258  1  0  0  0  0
225259  1  0  0  0  0
226260  1  0  0  0  0
231261  1  0  0  0  0
232262  1  0  0  0  0
236263  1  0  0  0  0
238264  1  0  0  0  0
238265  1  0  0  0  0
238266  1  0  0  0  0
239267  1  0  0  0  0
241268  1  0  0  0  0
241269  1  0  0  0  0
241270  1  0  0  0  0
242271  1  0  0  0  0
244272  1  0  0  0  0
245273  1  0  0  0  0
250274  1  0  0  0  0
252275  1  0  0  0  0
252276  1  0  0  0  0
252277  1  0  0  0  0
253278  1  0  0  0  0
255279  1  0  0  0  0
255280  1  0  0  0  0
255281  1  0  0  0  0
256282  1  0  0  0  0
M  END
