 xtb: 6.5.1 (b24c23e)
          07272217283D

394435  0     0  0            999 V2000
   77.0364    0.0393   -0.1510 C   0  0  0  0  0  0  0  0  0  0  0  0
   77.6416    1.2489   -0.4657 C   0  0  0  0  0  0  0  0  0  0  0  0
   76.9858    2.4612   -0.8209 C   0  0  0  0  0  0  0  0  0  0  0  0
   77.9449    3.3995   -1.0776 C   0  0  0  0  0  0  0  0  0  0  0  0
   79.2183    2.7939   -0.8753 C   0  0  0  0  0  0  0  0  0  0  0  0
   78.9843    1.4975   -0.5144 N   0  0  0  0  0  0  0  0  0  0  0  0
   80.4806    3.3773   -1.0308 C   0  0  0  0  0  0  0  0  0  0  0  0
   80.5104    4.8096   -1.4161 C   0  0  0  0  0  0  0  0  0  0  0  0
   79.9254    5.7766   -0.6037 C   0  0  0  0  0  0  0  0  0  0  0  0
   79.9551    7.1216   -0.9707 C   0  0  0  0  0  0  0  0  0  0  0  0
   79.3154    8.1046   -0.0605 C   0  0  0  0  0  0  0  0  0  0  0  0
   79.4127    9.3722   -0.4868 O   0  0  0  0  0  0  0  0  0  0  0  0
   78.7549    7.8161    0.9659 O   0  0  0  0  0  0  0  0  0  0  0  0
   80.5715    7.5085   -2.1605 C   0  0  0  0  0  0  0  0  0  0  0  0
   81.1535    6.5474   -2.9722 C   0  0  0  0  0  0  0  0  0  0  0  0
   81.1255    5.2095   -2.6054 C   0  0  0  0  0  0  0  0  0  0  0  0
   81.6988    2.7176   -0.8495 C   0  0  0  0  0  0  0  0  0  0  0  0
   82.9934    3.3701   -0.9315 C   0  0  0  0  0  0  0  0  0  0  0  0
   83.9173    2.4188   -0.6835 C   0  0  0  0  0  0  0  0  0  0  0  0
   81.8581    1.4005   -0.5448 N   0  0  0  0  0  0  0  0  0  0  0  0
   83.1860    1.1890   -0.4469 C   0  0  0  0  0  0  0  0  0  0  0  0
   83.8273   -0.0332   -0.1605 C   0  0  0  0  0  0  0  0  0  0  0  0
   83.1958   -1.2626    0.1070 C   0  0  0  0  0  0  0  0  0  0  0  0
   83.8440   -2.4866    0.4203 C   0  0  0  0  0  0  0  0  0  0  0  0
   82.8793   -3.4289    0.6468 C   0  0  0  0  0  0  0  0  0  0  0  0
   81.6110   -2.8091    0.4716 C   0  0  0  0  0  0  0  0  0  0  0  0
   81.8546   -1.5010    0.1463 N   0  0  0  0  0  0  0  0  0  0  0  0
   80.3502   -3.3910    0.6401 C   0  0  0  0  0  0  0  0  0  0  0  0
   80.3223   -4.8322    0.9920 C   0  0  0  0  0  0  0  0  0  0  0  0
   80.8607   -5.7858    0.1251 C   0  0  0  0  0  0  0  0  0  0  0  0
   80.8340   -7.1344    0.4528 C   0  0  0  0  0  0  0  0  0  0  0  0
   80.2743   -7.5474    1.6502 C   0  0  0  0  0  0  0  0  0  0  0  0
   79.7353   -6.6038    2.5260 C   0  0  0  0  0  0  0  0  0  0  0  0
   79.1478   -7.0862    3.8015 C   0  0  0  0  0  0  0  0  0  0  0  0
   78.6561   -6.1045    4.5711 O   0  0  0  0  0  0  0  0  0  0  0  0
   79.1050   -8.2427    4.1346 O   0  0  0  0  0  0  0  0  0  0  0  0
   79.7584   -5.2505    2.1956 C   0  0  0  0  0  0  0  0  0  0  0  0
   79.1314   -2.7180    0.5079 C   0  0  0  0  0  0  0  0  0  0  0  0
   77.8280   -3.3509    0.6405 C   0  0  0  0  0  0  0  0  0  0  0  0
   76.9114   -2.3866    0.4236 C   0  0  0  0  0  0  0  0  0  0  0  0
   77.6532   -1.1682    0.1490 C   0  0  0  0  0  0  0  0  0  0  0  0
   78.9865   -1.4059    0.2063 N   0  0  0  0  0  0  0  0  0  0  0  0
   75.9511    0.0434   -0.1579 H   0  0  0  0  0  0  0  0  0  0  0  0
   75.9159    2.5837   -0.8772 H   0  0  0  0  0  0  0  0  0  0  0  0
   77.7896    4.4197   -1.3888 H   0  0  0  0  0  0  0  0  0  0  0  0
   79.7115    0.8186   -0.3158 H   0  0  0  0  0  0  0  0  0  0  0  0
   79.4559    5.4975    0.3333 H   0  0  0  0  0  0  0  0  0  0  0  0
   78.9746    9.9494    0.1594 H   0  0  0  0  0  0  0  0  0  0  0  0
   80.5921    8.5535   -2.4449 H   0  0  0  0  0  0  0  0  0  0  0  0
   81.6315    6.8405   -3.9001 H   0  0  0  0  0  0  0  0  0  0  0  0
   81.5710    4.4616   -3.2517 H   0  0  0  0  0  0  0  0  0  0  0  0
   83.1520    4.4174   -1.1315 H   0  0  0  0  0  0  0  0  0  0  0  0
   84.9907    2.5156   -0.6519 H   0  0  0  0  0  0  0  0  0  0  0  0
   84.9128   -2.6177    0.4713 H   0  0  0  0  0  0  0  0  0  0  0  0
   83.0299   -4.4594    0.9245 H   0  0  0  0  0  0  0  0  0  0  0  0
   81.1306   -0.8103   -0.0225 H   0  0  0  0  0  0  0  0  0  0  0  0
   81.2872   -5.4665   -0.8193 H   0  0  0  0  0  0  0  0  0  0  0  0
   81.2511   -7.8634   -0.2326 H   0  0  0  0  0  0  0  0  0  0  0  0
   80.2464   -8.5965    1.9221 H   0  0  0  0  0  0  0  0  0  0  0  0
   78.2931   -6.4991    5.3806 H   0  0  0  0  0  0  0  0  0  0  0  0
   79.3513   -4.5187    2.8832 H   0  0  0  0  0  0  0  0  0  0  0  0
   77.6620   -4.3942    0.8556 H   0  0  0  0  0  0  0  0  0  0  0  0
   75.8355   -2.4630    0.4327 H   0  0  0  0  0  0  0  0  0  0  0  0
  151.0744   -0.0629   -0.2058 C   0  0  0  0  0  0  0  0  0  0  0  0
  150.4725   -1.2989   -0.0105 C   0  0  0  0  0  0  0  0  0  0  0  0
  151.1318   -2.5520    0.1364 C   0  0  0  0  0  0  0  0  0  0  0  0
  150.1756   -3.5166    0.2813 C   0  0  0  0  0  0  0  0  0  0  0  0
  148.9005   -2.8827    0.2373 C   0  0  0  0  0  0  0  0  0  0  0  0
  149.1307   -1.5487    0.0555 N   0  0  0  0  0  0  0  0  0  0  0  0
  147.6406   -3.4852    0.3246 C   0  0  0  0  0  0  0  0  0  0  0  0
  147.6191   -4.9526    0.5430 C   0  0  0  0  0  0  0  0  0  0  0  0
  148.2022   -5.5065    1.6792 C   0  0  0  0  0  0  0  0  0  0  0  0
  148.1799   -6.8853    1.8859 C   0  0  0  0  0  0  0  0  0  0  0  0
  148.8151   -7.4134    3.1195 C   0  0  0  0  0  0  0  0  0  0  0  0
  148.7216   -8.7453    3.2421 O   0  0  0  0  0  0  0  0  0  0  0  0
  149.3684   -6.7320    3.9444 O   0  0  0  0  0  0  0  0  0  0  0  0
  147.5736   -7.7228    0.9499 C   0  0  0  0  0  0  0  0  0  0  0  0
  146.9948   -7.1742   -0.1839 C   0  0  0  0  0  0  0  0  0  0  0  0
  147.0150   -5.8018   -0.3877 C   0  0  0  0  0  0  0  0  0  0  0  0
  146.4196   -2.8129    0.2288 C   0  0  0  0  0  0  0  0  0  0  0  0
  145.1263   -3.4529    0.3909 C   0  0  0  0  0  0  0  0  0  0  0  0
  144.1996   -2.4819    0.2542 C   0  0  0  0  0  0  0  0  0  0  0  0
  146.2566   -1.4791    0.0108 N   0  0  0  0  0  0  0  0  0  0  0  0
  144.9279   -1.2504    0.0178 C   0  0  0  0  0  0  0  0  0  0  0  0
  144.2843   -0.0075   -0.1493 C   0  0  0  0  0  0  0  0  0  0  0  0
  144.9124    1.2374   -0.3424 C   0  0  0  0  0  0  0  0  0  0  0  0
  144.2609    2.4915   -0.4811 C   0  0  0  0  0  0  0  0  0  0  0  0
  145.2221    3.4511   -0.6389 C   0  0  0  0  0  0  0  0  0  0  0  0
  146.4913    2.8096   -0.6086 C   0  0  0  0  0  0  0  0  0  0  0  0
  146.2521    1.4736   -0.4235 N   0  0  0  0  0  0  0  0  0  0  0  0
  147.7502    3.4113   -0.7083 C   0  0  0  0  0  0  0  0  0  0  0  0
  147.7721    4.8784   -0.9279 C   0  0  0  0  0  0  0  0  0  0  0  0
  147.1923    5.4336   -2.0710 C   0  0  0  0  0  0  0  0  0  0  0  0
  147.2116    6.8058   -2.2787 C   0  0  0  0  0  0  0  0  0  0  0  0
  147.8058    7.6409   -1.3474 C   0  0  0  0  0  0  0  0  0  0  0  0
  148.3874    7.0984   -0.2004 C   0  0  0  0  0  0  0  0  0  0  0  0
  149.0128    8.0272    0.7746 C   0  0  0  0  0  0  0  0  0  0  0  0
  149.5466    7.4096    1.8383 O   0  0  0  0  0  0  0  0  0  0  0  0
  149.0497    9.2241    0.6447 O   0  0  0  0  0  0  0  0  0  0  0  0
  148.3710    5.7207    0.0067 C   0  0  0  0  0  0  0  0  0  0  0  0
  148.9716    2.7367   -0.6133 C   0  0  0  0  0  0  0  0  0  0  0  0
  150.2718    3.3702   -0.7703 C   0  0  0  0  0  0  0  0  0  0  0  0
  151.1915    2.3954   -0.6243 C   0  0  0  0  0  0  0  0  0  0  0  0
  150.4543    1.1663   -0.3881 C   0  0  0  0  0  0  0  0  0  0  0  0
  149.1208    1.4090   -0.3930 N   0  0  0  0  0  0  0  0  0  0  0  0
  152.1595   -0.0694   -0.2293 H   0  0  0  0  0  0  0  0  0  0  0  0
  152.2018   -2.6847    0.1235 H   0  0  0  0  0  0  0  0  0  0  0  0
  150.3332   -4.5765    0.3983 H   0  0  0  0  0  0  0  0  0  0  0  0
  148.4017   -0.8477   -0.0232 H   0  0  0  0  0  0  0  0  0  0  0  0
  148.6642   -4.8701    2.4261 H   0  0  0  0  0  0  0  0  0  0  0  0
  149.1537   -9.0107    4.0700 H   0  0  0  0  0  0  0  0  0  0  0  0
  147.5583   -8.7938    1.1112 H   0  0  0  0  0  0  0  0  0  0  0  0
  146.5248   -7.8197   -0.9174 H   0  0  0  0  0  0  0  0  0  0  0  0
  146.5719   -5.3810   -1.2834 H   0  0  0  0  0  0  0  0  0  0  0  0
  144.9697   -4.4988    0.5994 H   0  0  0  0  0  0  0  0  0  0  0  0
  143.1261   -2.5637    0.3130 H   0  0  0  0  0  0  0  0  0  0  0  0
  143.1924    2.6326   -0.4554 H   0  0  0  0  0  0  0  0  0  0  0  0
  145.0686    4.5117   -0.7535 H   0  0  0  0  0  0  0  0  0  0  0  0
  146.9779    0.7686   -0.3470 H   0  0  0  0  0  0  0  0  0  0  0  0
  146.7388    4.7807   -2.8085 H   0  0  0  0  0  0  0  0  0  0  0  0
  146.7616    7.2215   -3.1730 H   0  0  0  0  0  0  0  0  0  0  0  0
  147.8287    8.7149   -1.4933 H   0  0  0  0  0  0  0  0  0  0  0  0
  149.9333    8.0813    2.4234 H   0  0  0  0  0  0  0  0  0  0  0  0
  148.8107    5.3034    0.9048 H   0  0  0  0  0  0  0  0  0  0  0  0
  150.4335    4.4157   -0.9781 H   0  0  0  0  0  0  0  0  0  0  0  0
  152.2666    2.4681   -0.6745 H   0  0  0  0  0  0  0  0  0  0  0  0
   86.4548   -0.0378   -0.0923 C   0  0  0  0  0  0  0  0  0  0  0  0
   85.2330   -0.0360   -0.1247 C   0  0  0  0  0  0  0  0  0  0  0  0
   87.8036   -0.0346   -0.0565 C   0  0  0  0  0  0  0  0  0  0  0  0
   89.0255   -0.0322   -0.0236 C   0  0  0  0  0  0  0  0  0  0  0  0
   99.9200   -0.0035    0.0840 C   0  0  0  0  0  0  0  0  0  0  0  0
   98.6972   -0.0048    0.0867 C   0  0  0  0  0  0  0  0  0  0  0  0
  101.2683    0.0012    0.0832 C   0  0  0  0  0  0  0  0  0  0  0  0
  102.4911    0.0006    0.0820 C   0  0  0  0  0  0  0  0  0  0  0  0
  113.3841    0.0089    0.1054 C   0  0  0  0  0  0  0  0  0  0  0  0
  112.1612    0.0120    0.1057 C   0  0  0  0  0  0  0  0  0  0  0  0
  114.7324    0.0103    0.1060 C   0  0  0  0  0  0  0  0  0  0  0  0
  115.9552    0.0076    0.1091 C   0  0  0  0  0  0  0  0  0  0  0  0
  126.8480    0.0191    0.0791 C   0  0  0  0  0  0  0  0  0  0  0  0
  125.6252    0.0162    0.0863 C   0  0  0  0  0  0  0  0  0  0  0  0
  128.1963    0.0268    0.0726 C   0  0  0  0  0  0  0  0  0  0  0  0
  129.4191    0.0291    0.0679 C   0  0  0  0  0  0  0  0  0  0  0  0
  140.3086    0.0320   -0.0354 C   0  0  0  0  0  0  0  0  0  0  0  0
  139.0867    0.0420   -0.0036 C   0  0  0  0  0  0  0  0  0  0  0  0
  141.6572    0.0232   -0.0719 C   0  0  0  0  0  0  0  0  0  0  0  0
  142.8789    0.0075   -0.1073 C   0  0  0  0  0  0  0  0  0  0  0  0
   90.4302   -0.0290    0.0101 C   0  0  0  0  0  0  0  0  0  0  0  0
   91.0509    1.2241    0.1756 C   0  0  0  0  0  0  0  0  0  0  0  0
   90.3976    2.4776    0.2966 C   0  0  0  0  0  0  0  0  0  0  0  0
   91.3571    3.4363    0.4773 C   0  0  0  0  0  0  0  0  0  0  0  0
   92.6246    2.7929    0.4782 C   0  0  0  0  0  0  0  0  0  0  0  0
   92.3894    1.4588    0.2814 N   0  0  0  0  0  0  0  0  0  0  0  0
   93.8802    3.3935    0.6330 C   0  0  0  0  0  0  0  0  0  0  0  0
   93.8824    4.8563    0.8870 C   0  0  0  0  0  0  0  0  0  0  0  0
   94.4911    5.7305   -0.0091 C   0  0  0  0  0  0  0  0  0  0  0  0
   94.4905    7.1038    0.2322 C   0  0  0  0  0  0  0  0  0  0  0  0
   95.1499    7.9856   -0.7638 C   0  0  0  0  0  0  0  0  0  0  0  0
   95.0952    9.2872   -0.4459 O   0  0  0  0  0  0  0  0  0  0  0  0
   95.6879    7.5946   -1.7676 O   0  0  0  0  0  0  0  0  0  0  0  0
   93.8816    7.6122    1.3795 C   0  0  0  0  0  0  0  0  0  0  0  0
   93.2758    6.7435    2.2740 C   0  0  0  0  0  0  0  0  0  0  0  0
   93.2727    5.3772    2.0310 C   0  0  0  0  0  0  0  0  0  0  0  0
   95.1094    2.7368    0.5685 C   0  0  0  0  0  0  0  0  0  0  0  0
   96.3895    3.3899    0.7779 C   0  0  0  0  0  0  0  0  0  0  0  0
   97.3336    2.4396    0.6196 C   0  0  0  0  0  0  0  0  0  0  0  0
   95.2965    1.4120    0.3136 N   0  0  0  0  0  0  0  0  0  0  0  0
   96.6286    1.2071    0.3263 C   0  0  0  0  0  0  0  0  0  0  0  0
   97.2929   -0.0128    0.0855 C   0  0  0  0  0  0  0  0  0  0  0  0
   96.6733   -1.2542   -0.1569 C   0  0  0  0  0  0  0  0  0  0  0  0
   97.3285   -2.4841   -0.4236 C   0  0  0  0  0  0  0  0  0  0  0  0
   96.3689   -3.4463   -0.5821 C   0  0  0  0  0  0  0  0  0  0  0  0
   95.0990   -2.8316   -0.4079 C   0  0  0  0  0  0  0  0  0  0  0  0
   95.3339   -1.5050   -0.1630 N   0  0  0  0  0  0  0  0  0  0  0  0
   93.8424   -3.4441   -0.4828 C   0  0  0  0  0  0  0  0  0  0  0  0
   93.8361   -4.9088   -0.7262 C   0  0  0  0  0  0  0  0  0  0  0  0
   93.2415   -5.4310   -1.8772 C   0  0  0  0  0  0  0  0  0  0  0  0
   93.2355   -6.7990   -2.1112 C   0  0  0  0  0  0  0  0  0  0  0  0
   93.8194   -7.6623   -1.1989 C   0  0  0  0  0  0  0  0  0  0  0  0
   94.4151   -7.1527   -0.0442 C   0  0  0  0  0  0  0  0  0  0  0  0
   95.0270   -8.1108    0.9107 C   0  0  0  0  0  0  0  0  0  0  0  0
   95.5794   -7.5227    1.9818 O   0  0  0  0  0  0  0  0  0  0  0  0
   95.0400   -9.3054    0.7590 O   0  0  0  0  0  0  0  0  0  0  0  0
   94.4246   -5.7789    0.1890 C   0  0  0  0  0  0  0  0  0  0  0  0
   92.6128   -2.7968   -0.3519 C   0  0  0  0  0  0  0  0  0  0  0  0
   91.3318   -3.4801   -0.3757 C   0  0  0  0  0  0  0  0  0  0  0  0
   90.3873   -2.5264   -0.2390 C   0  0  0  0  0  0  0  0  0  0  0  0
   91.0931   -1.2657   -0.1222 C   0  0  0  0  0  0  0  0  0  0  0  0
   92.4262   -1.4593   -0.1796 N   0  0  0  0  0  0  0  0  0  0  0  0
   89.3301    2.6196    0.2472 H   0  0  0  0  0  0  0  0  0  0  0  0
   91.2025    4.4970    0.5899 H   0  0  0  0  0  0  0  0  0  0  0  0
   93.1128    0.7503    0.2185 H   0  0  0  0  0  0  0  0  0  0  0  0
   94.9589    5.3541   -0.9122 H   0  0  0  0  0  0  0  0  0  0  0  0
   95.5432    9.7938   -1.1426 H   0  0  0  0  0  0  0  0  0  0  0  0
   93.8838    8.6792    1.5664 H   0  0  0  0  0  0  0  0  0  0  0  0
   92.8032    7.1313    3.1695 H   0  0  0  0  0  0  0  0  0  0  0  0
   92.8080    4.7024    2.7414 H   0  0  0  0  0  0  0  0  0  0  0  0
   96.5253    4.4308    1.0225 H   0  0  0  0  0  0  0  0  0  0  0  0
   98.4049    2.5350    0.6964 H   0  0  0  0  0  0  0  0  0  0  0  0
   98.3975   -2.6075   -0.4889 H   0  0  0  0  0  0  0  0  0  0  0  0
   96.5252   -4.4883   -0.8085 H   0  0  0  0  0  0  0  0  0  0  0  0
   94.6097   -0.8100   -0.0153 H   0  0  0  0  0  0  0  0  0  0  0  0
   92.7944   -4.7555   -2.5979 H   0  0  0  0  0  0  0  0  0  0  0  0
   92.7741   -7.1895   -3.0111 H   0  0  0  0  0  0  0  0  0  0  0  0
   93.8225   -8.7335   -1.3655 H   0  0  0  0  0  0  0  0  0  0  0  0
   95.9517   -8.2130    2.5544 H   0  0  0  0  0  0  0  0  0  0  0  0
   94.8752   -5.3874    1.0934 H   0  0  0  0  0  0  0  0  0  0  0  0
   91.1955   -4.5453   -0.4696 H   0  0  0  0  0  0  0  0  0  0  0  0
   89.3154   -2.6395   -0.2089 H   0  0  0  0  0  0  0  0  0  0  0  0
  103.8954    0.0042    0.0848 C   0  0  0  0  0  0  0  0  0  0  0  0
  104.5191    1.2540    0.2662 C   0  0  0  0  0  0  0  0  0  0  0  0
  103.8675    2.5058    0.4109 C   0  0  0  0  0  0  0  0  0  0  0  0
  104.8296    3.4633    0.5836 C   0  0  0  0  0  0  0  0  0  0  0  0
  106.0972    2.8204    0.5589 C   0  0  0  0  0  0  0  0  0  0  0  0
  105.8589    1.4880    0.3536 N   0  0  0  0  0  0  0  0  0  0  0  0
  107.3552    3.4190    0.7016 C   0  0  0  0  0  0  0  0  0  0  0  0
  107.3635    4.8810    0.9588 C   0  0  0  0  0  0  0  0  0  0  0  0
  107.9769    5.7528    0.0636 C   0  0  0  0  0  0  0  0  0  0  0  0
  107.9821    7.1260    0.3047 C   0  0  0  0  0  0  0  0  0  0  0  0
  108.6505    8.0042   -0.6886 C   0  0  0  0  0  0  0  0  0  0  0  0
  108.5961    9.3067   -0.3743 O   0  0  0  0  0  0  0  0  0  0  0  0
  109.1964    7.6094   -1.6867 O   0  0  0  0  0  0  0  0  0  0  0  0
  107.3724    7.6373    1.4503 C   0  0  0  0  0  0  0  0  0  0  0  0
  106.7627    6.7712    2.3443 C   0  0  0  0  0  0  0  0  0  0  0  0
  106.7554    5.4047    2.1023 C   0  0  0  0  0  0  0  0  0  0  0  0
  108.5828    2.7602    0.6222 C   0  0  0  0  0  0  0  0  0  0  0  0
  109.8656    3.4080    0.8312 C   0  0  0  0  0  0  0  0  0  0  0  0
  110.8064    2.4563    0.6620 C   0  0  0  0  0  0  0  0  0  0  0  0
  108.7652    1.4371    0.3554 N   0  0  0  0  0  0  0  0  0  0  0  0
  110.0969    1.2285    0.3605 C   0  0  0  0  0  0  0  0  0  0  0  0
  110.7570    0.0096    0.1043 C   0  0  0  0  0  0  0  0  0  0  0  0
  110.1335   -1.2264   -0.1567 C   0  0  0  0  0  0  0  0  0  0  0  0
  110.7857   -2.4524   -0.4470 C   0  0  0  0  0  0  0  0  0  0  0  0
  109.8238   -3.4096   -0.6214 C   0  0  0  0  0  0  0  0  0  0  0  0
  108.5556   -2.7957   -0.4328 C   0  0  0  0  0  0  0  0  0  0  0  0
  108.7937   -1.4743   -0.1647 N   0  0  0  0  0  0  0  0  0  0  0  0
  107.2974   -3.4048   -0.5146 C   0  0  0  0  0  0  0  0  0  0  0  0
  107.2883   -4.8651   -0.7822 C   0  0  0  0  0  0  0  0  0  0  0  0
  106.6837   -5.3691   -1.9360 C   0  0  0  0  0  0  0  0  0  0  0  0
  106.6759   -6.7333   -2.1916 C   0  0  0  0  0  0  0  0  0  0  0  0
  107.2685   -7.6108   -1.2990 C   0  0  0  0  0  0  0  0  0  0  0  0
  107.8748   -7.1194   -0.1419 C   0  0  0  0  0  0  0  0  0  0  0  0
  108.4985   -8.0919    0.7907 C   0  0  0  0  0  0  0  0  0  0  0  0
  109.0635   -7.5200    1.8641 O   0  0  0  0  0  0  0  0  0  0  0  0
  108.5111   -9.2839    0.6200 O   0  0  0  0  0  0  0  0  0  0  0  0
  107.8851   -5.7497    0.1136 C   0  0  0  0  0  0  0  0  0  0  0  0
  106.0700   -2.7579   -0.3657 C   0  0  0  0  0  0  0  0  0  0  0  0
  104.7874   -3.4380   -0.3939 C   0  0  0  0  0  0  0  0  0  0  0  0
  103.8461   -2.4859   -0.2277 C   0  0  0  0  0  0  0  0  0  0  0  0
  104.5555   -1.2293   -0.0896 C   0  0  0  0  0  0  0  0  0  0  0  0
  105.8872   -1.4236   -0.1638 N   0  0  0  0  0  0  0  0  0  0  0  0
  102.7994    2.6481    0.3791 H   0  0  0  0  0  0  0  0  0  0  0  0
  104.6761    4.5230    0.7066 H   0  0  0  0  0  0  0  0  0  0  0  0
  106.5816    0.7808    0.2703 H   0  0  0  0  0  0  0  0  0  0  0  0
  108.4444    5.3745   -0.8389 H   0  0  0  0  0  0  0  0  0  0  0  0
  109.0513    9.8102   -1.0687 H   0  0  0  0  0  0  0  0  0  0  0  0
  107.3785    8.7044    1.6366 H   0  0  0  0  0  0  0  0  0  0  0  0
  106.2901    7.1611    3.2387 H   0  0  0  0  0  0  0  0  0  0  0  0
  106.2886    4.7322    2.8134 H   0  0  0  0  0  0  0  0  0  0  0  0
  110.0055    4.4463    1.0847 H   0  0  0  0  0  0  0  0  0  0  0  0
  111.8782    2.5484    0.7353 H   0  0  0  0  0  0  0  0  0  0  0  0
  111.8543   -2.5764   -0.5172 H   0  0  0  0  0  0  0  0  0  0  0  0
  109.9775   -4.4475   -0.8677 H   0  0  0  0  0  0  0  0  0  0  0  0
  108.0710   -0.7808   -0.0031 H   0  0  0  0  0  0  0  0  0  0  0  0
  106.2305   -4.6825   -2.6421 H   0  0  0  0  0  0  0  0  0  0  0  0
  106.2063   -7.1096   -3.0933 H   0  0  0  0  0  0  0  0  0  0  0  0
  107.2710   -8.6792   -1.4830 H   0  0  0  0  0  0  0  0  0  0  0  0
  109.4447   -8.2187    2.4204 H   0  0  0  0  0  0  0  0  0  0  0  0
  108.3435   -5.3726    1.0202 H   0  0  0  0  0  0  0  0  0  0  0  0
  104.6480   -4.5006   -0.5100 H   0  0  0  0  0  0  0  0  0  0  0  0
  102.7743   -2.5978   -0.1908 H   0  0  0  0  0  0  0  0  0  0  0  0
  117.3594    0.0090    0.1080 C   0  0  0  0  0  0  0  0  0  0  0  0
  117.9846    1.2585    0.2876 C   0  0  0  0  0  0  0  0  0  0  0  0
  117.3340    2.5105    0.4356 C   0  0  0  0  0  0  0  0  0  0  0  0
  118.2973    3.4678    0.6025 C   0  0  0  0  0  0  0  0  0  0  0  0
  119.5645    2.8247    0.5707 C   0  0  0  0  0  0  0  0  0  0  0  0
  119.3248    1.4921    0.3673 N   0  0  0  0  0  0  0  0  0  0  0  0
  120.8235    3.4227    0.7066 C   0  0  0  0  0  0  0  0  0  0  0  0
  120.8346    4.8844    0.9652 C   0  0  0  0  0  0  0  0  0  0  0  0
  121.4458    5.7568    0.0689 C   0  0  0  0  0  0  0  0  0  0  0  0
  121.4570    7.1292    0.3141 C   0  0  0  0  0  0  0  0  0  0  0  0
  122.1253    8.0081   -0.6788 C   0  0  0  0  0  0  0  0  0  0  0  0
  122.0805    9.3093   -0.3579 O   0  0  0  0  0  0  0  0  0  0  0  0
  122.6641    7.6146   -1.6813 O   0  0  0  0  0  0  0  0  0  0  0  0
  120.8549    7.6392    1.4643 C   0  0  0  0  0  0  0  0  0  0  0  0
  120.2466    6.7727    2.3587 C   0  0  0  0  0  0  0  0  0  0  0  0
  120.2340    5.4069    2.1131 C   0  0  0  0  0  0  0  0  0  0  0  0
  122.0502    2.7632    0.6212 C   0  0  0  0  0  0  0  0  0  0  0  0
  123.3342    3.4106    0.8244 C   0  0  0  0  0  0  0  0  0  0  0  0
  124.2738    2.4585    0.6508 C   0  0  0  0  0  0  0  0  0  0  0  0
  122.2307    1.4401    0.3538 N   0  0  0  0  0  0  0  0  0  0  0  0
  123.5624    1.2310    0.3527 C   0  0  0  0  0  0  0  0  0  0  0  0
  124.2210    0.0119    0.0935 C   0  0  0  0  0  0  0  0  0  0  0  0
  123.5962   -1.2243   -0.1625 C   0  0  0  0  0  0  0  0  0  0  0  0
  124.2467   -2.4512   -0.4526 C   0  0  0  0  0  0  0  0  0  0  0  0
  123.2835   -3.4083   -0.6215 C   0  0  0  0  0  0  0  0  0  0  0  0
  122.0164   -2.7933   -0.4296 C   0  0  0  0  0  0  0  0  0  0  0  0
  122.2561   -1.4715   -0.1651 N   0  0  0  0  0  0  0  0  0  0  0  0
  120.7574   -3.4016   -0.5061 C   0  0  0  0  0  0  0  0  0  0  0  0
  120.7470   -4.8625   -0.7703 C   0  0  0  0  0  0  0  0  0  0  0  0
  120.1378   -5.3699   -1.9202 C   0  0  0  0  0  0  0  0  0  0  0  0
  120.1290   -6.7347   -2.1717 C   0  0  0  0  0  0  0  0  0  0  0  0
  120.7254   -7.6099   -1.2792 C   0  0  0  0  0  0  0  0  0  0  0  0
  121.3364   -7.1152   -0.1260 C   0  0  0  0  0  0  0  0  0  0  0  0
  121.9646   -8.0842    0.8071 C   0  0  0  0  0  0  0  0  0  0  0  0
  122.5315   -7.5083    1.8774 O   0  0  0  0  0  0  0  0  0  0  0  0
  121.9790   -9.2766    0.6396 O   0  0  0  0  0  0  0  0  0  0  0  0
  121.3474   -5.7446    0.1255 C   0  0  0  0  0  0  0  0  0  0  0  0
  119.5308   -2.7540   -0.3535 C   0  0  0  0  0  0  0  0  0  0  0  0
  118.2478   -3.4333   -0.3770 C   0  0  0  0  0  0  0  0  0  0  0  0
  117.3077   -2.4808   -0.2064 C   0  0  0  0  0  0  0  0  0  0  0  0
  118.0182   -1.2246   -0.0703 C   0  0  0  0  0  0  0  0  0  0  0  0
  119.3494   -1.4195   -0.1505 N   0  0  0  0  0  0  0  0  0  0  0  0
  116.2657    2.6529    0.4102 H   0  0  0  0  0  0  0  0  0  0  0  0
  118.1447    4.5276    0.7260 H   0  0  0  0  0  0  0  0  0  0  0  0
  120.0469    0.7849    0.2803 H   0  0  0  0  0  0  0  0  0  0  0  0
  121.9074    5.3795   -0.8371 H   0  0  0  0  0  0  0  0  0  0  0  0
  122.5360    9.8135   -1.0516 H   0  0  0  0  0  0  0  0  0  0  0  0
  120.8660    8.7057    1.6539 H   0  0  0  0  0  0  0  0  0  0  0  0
  119.7799    7.1615    3.2567 H   0  0  0  0  0  0  0  0  0  0  0  0
  119.7692    4.7337    2.8249 H   0  0  0  0  0  0  0  0  0  0  0  0
  123.4757    4.4487    1.0773 H   0  0  0  0  0  0  0  0  0  0  0  0
  125.3459    2.5501    0.7197 H   0  0  0  0  0  0  0  0  0  0  0  0
  125.3149   -2.5760   -0.5261 H   0  0  0  0  0  0  0  0  0  0  0  0
  123.4361   -4.4467   -0.8662 H   0  0  0  0  0  0  0  0  0  0  0  0
  121.5342   -0.7777   -0.0014 H   0  0  0  0  0  0  0  0  0  0  0  0
  119.6817   -4.6854   -2.6265 H   0  0  0  0  0  0  0  0  0  0  0  0
  119.6556   -7.1130   -3.0704 H   0  0  0  0  0  0  0  0  0  0  0  0
  120.7273   -8.6788   -1.4603 H   0  0  0  0  0  0  0  0  0  0  0  0
  122.9155   -8.2048    2.4346 H   0  0  0  0  0  0  0  0  0  0  0  0
  121.8094   -5.3648    1.0290 H   0  0  0  0  0  0  0  0  0  0  0  0
  118.1073   -4.4958   -0.4932 H   0  0  0  0  0  0  0  0  0  0  0  0
  116.2360   -2.5922   -0.1648 H   0  0  0  0  0  0  0  0  0  0  0  0
  130.8234    0.0322    0.0617 C   0  0  0  0  0  0  0  0  0  0  0  0
  131.4480    1.2825    0.2360 C   0  0  0  0  0  0  0  0  0  0  0  0
  130.7963    2.5340    0.3847 C   0  0  0  0  0  0  0  0  0  0  0  0
  131.7590    3.4936    0.5413 C   0  0  0  0  0  0  0  0  0  0  0  0
  133.0272    2.8527    0.5016 C   0  0  0  0  0  0  0  0  0  0  0  0
  132.7883    1.5188    0.3056 N   0  0  0  0  0  0  0  0  0  0  0  0
  134.2860    3.4544    0.6188 C   0  0  0  0  0  0  0  0  0  0  0  0
  134.2975    4.9188    0.8626 C   0  0  0  0  0  0  0  0  0  0  0  0
  134.8906    5.7828   -0.0537 C   0  0  0  0  0  0  0  0  0  0  0  0
  134.9033    7.1578    0.1765 C   0  0  0  0  0  0  0  0  0  0  0  0
  135.5512    8.0268   -0.8384 C   0  0  0  0  0  0  0  0  0  0  0  0
  135.5101    9.3314   -0.5311 O   0  0  0  0  0  0  0  0  0  0  0  0
  136.0706    7.6231   -1.8471 O   0  0  0  0  0  0  0  0  0  0  0  0
  134.3214    7.6789    1.3320 C   0  0  0  0  0  0  0  0  0  0  0  0
  133.7307    6.8207    2.2462 C   0  0  0  0  0  0  0  0  0  0  0  0
  133.7159    5.4523    2.0151 C   0  0  0  0  0  0  0  0  0  0  0  0
  135.5134    2.7965    0.5250 C   0  0  0  0  0  0  0  0  0  0  0  0
  136.7987    3.4494    0.7001 C   0  0  0  0  0  0  0  0  0  0  0  0
  137.7379    2.4966    0.5276 C   0  0  0  0  0  0  0  0  0  0  0  0
  135.6926    1.4701    0.2750 N   0  0  0  0  0  0  0  0  0  0  0  0
  137.0249    1.2630    0.2601 C   0  0  0  0  0  0  0  0  0  0  0  0
  137.6818    0.0394    0.0222 C   0  0  0  0  0  0  0  0  0  0  0  0
  137.0572   -1.2034   -0.1985 C   0  0  0  0  0  0  0  0  0  0  0  0
  137.7087   -2.4354   -0.4646 C   0  0  0  0  0  0  0  0  0  0  0  0
  136.7463   -3.3956   -0.6185 C   0  0  0  0  0  0  0  0  0  0  0  0
  135.4786   -2.7774   -0.4415 C   0  0  0  0  0  0  0  0  0  0  0  0
  135.7172   -1.4518   -0.1969 N   0  0  0  0  0  0  0  0  0  0  0  0
  134.2197   -3.3855   -0.5219 C   0  0  0  0  0  0  0  0  0  0  0  0
  134.2108   -4.8477   -0.7798 C   0  0  0  0  0  0  0  0  0  0  0  0
  133.6179   -5.3573   -1.9372 C   0  0  0  0  0  0  0  0  0  0  0  0
  133.6144   -6.7225   -2.1874 C   0  0  0  0  0  0  0  0  0  0  0  0
  134.2001   -7.5954   -1.2859 C   0  0  0  0  0  0  0  0  0  0  0  0
  134.7941   -7.0985   -0.1248 C   0  0  0  0  0  0  0  0  0  0  0  0
  135.4119   -8.0661    0.8164 C   0  0  0  0  0  0  0  0  0  0  0  0
  135.9577   -7.4900    1.8976 O   0  0  0  0  0  0  0  0  0  0  0  0
  135.4364   -9.2581    0.6463 O   0  0  0  0  0  0  0  0  0  0  0  0
  134.7995   -5.7277    0.1255 C   0  0  0  0  0  0  0  0  0  0  0  0
  132.9931   -2.7348   -0.3847 C   0  0  0  0  0  0  0  0  0  0  0  0
  131.7091   -3.4120   -0.4158 C   0  0  0  0  0  0  0  0  0  0  0  0
  130.7696   -2.4575   -0.2530 C   0  0  0  0  0  0  0  0  0  0  0  0
  131.4815   -1.2022   -0.1149 C   0  0  0  0  0  0  0  0  0  0  0  0
  132.8127   -1.3993   -0.1875 N   0  0  0  0  0  0  0  0  0  0  0  0
  129.7276    2.6743    0.3663 H   0  0  0  0  0  0  0  0  0  0  0  0
  131.6057    4.5535    0.6628 H   0  0  0  0  0  0  0  0  0  0  0  0
  133.5112    0.8124    0.2171 H   0  0  0  0  0  0  0  0  0  0  0  0
  135.3369    5.3967   -0.9636 H   0  0  0  0  0  0  0  0  0  0  0  0
  135.9517    9.8287   -1.2387 H   0  0  0  0  0  0  0  0  0  0  0  0
  134.3342    8.7473    1.5104 H   0  0  0  0  0  0  0  0  0  0  0  0
  133.2795    7.2182    3.1483 H   0  0  0  0  0  0  0  0  0  0  0  0
  133.2646    4.7862    2.7420 H   0  0  0  0  0  0  0  0  0  0  0  0
  136.9416    4.4916    0.9349 H   0  0  0  0  0  0  0  0  0  0  0  0
  138.8107    2.5909    0.5799 H   0  0  0  0  0  0  0  0  0  0  0  0
  138.7771   -2.5614   -0.5337 H   0  0  0  0  0  0  0  0  0  0  0  0
  136.8996   -4.4382   -0.8442 H   0  0  0  0  0  0  0  0  0  0  0  0
  134.9948   -0.7550   -0.0484 H   0  0  0  0  0  0  0  0  0  0  0  0
  133.1710   -4.6741   -2.6507 H   0  0  0  0  0  0  0  0  0  0  0  0
  133.1543   -7.1030   -3.0921 H   0  0  0  0  0  0  0  0  0  0  0  0
  134.2068   -8.6645   -1.4661 H   0  0  0  0  0  0  0  0  0  0  0  0
  136.3356   -8.1861    2.4594 H   0  0  0  0  0  0  0  0  0  0  0  0
  135.2490   -5.3462    1.0347 H   0  0  0  0  0  0  0  0  0  0  0  0
  131.5679   -4.4744   -0.5315 H   0  0  0  0  0  0  0  0  0  0  0  0
  129.6975   -2.5670   -0.2189 H   0  0  0  0  0  0  0  0  0  0  0  0
  1  2  4  0  0  0  0
  2  3  4  0  0  0  0
  3  4  2  0  0  0  0
  4  5  4  0  0  0  0
  2  6  4  0  0  0  0
  5  6  4  0  0  0  0
  5  7  4  0  0  0  0
  7  8  1  0  0  0  0
  8  9  4  0  0  0  0
  9 10  4  0  0  0  0
 10 11  1  0  0  0  0
 11 12  4  0  0  0  0
 11 13  2  0  0  0  0
 10 14  4  0  0  0  0
 14 15  4  0  0  0  0
  8 16  4  0  0  0  0
 15 16  4  0  0  0  0
  7 17  4  0  0  0  0
 17 18  1  0  0  0  0
 18 19  2  0  0  0  0
 17 20  4  0  0  0  0
 19 21  1  0  0  0  0
 20 21  4  0  0  0  0
 21 22  4  0  0  0  0
 22 23  4  0  0  0  0
 23 24  4  0  0  0  0
 24 25  2  0  0  0  0
 25 26  4  0  0  0  0
 23 27  4  0  0  0  0
 26 27  4  0  0  0  0
 26 28  4  0  0  0  0
 28 29  1  0  0  0  0
 29 30  4  0  0  0  0
 30 31  4  0  0  0  0
 31 32  4  0  0  0  0
 32 33  4  0  0  0  0
 33 34  1  0  0  0  0
 34 35  4  0  0  0  0
 34 36  2  0  0  0  0
 29 37  4  0  0  0  0
 33 37  4  0  0  0  0
 28 38  4  0  0  0  0
 38 39  1  0  0  0  0
 39 40  2  0  0  0  0
  1 41  4  0  0  0  0
 40 41  1  0  0  0  0
 38 42  4  0  0  0  0
 41 42  4  0  0  0  0
  1 43  1  0  0  0  0
  3 44  1  0  0  0  0
  4 45  1  0  0  0  0
  6 46  1  0  0  0  0
  9 47  1  0  0  0  0
 12 48  1  0  0  0  0
 14 49  1  0  0  0  0
 15 50  1  0  0  0  0
 16 51  1  0  0  0  0
 18 52  1  0  0  0  0
 19 53  1  0  0  0  0
 24 54  1  0  0  0  0
 25 55  1  0  0  0  0
 27 56  1  0  0  0  0
 30 57  1  0  0  0  0
 31 58  1  0  0  0  0
 32 59  1  0  0  0  0
 35 60  1  0  0  0  0
 37 61  1  0  0  0  0
 39 62  1  0  0  0  0
 40 63  1  0  0  0  0
 64 65  4  0  0  0  0
 65 66  4  0  0  0  0
 66 67  2  0  0  0  0
 67 68  4  0  0  0  0
 65 69  4  0  0  0  0
 68 69  4  0  0  0  0
 68 70  4  0  0  0  0
 70 71  1  0  0  0  0
 71 72  4  0  0  0  0
 72 73  4  0  0  0  0
 73 74  1  0  0  0  0
 74 75  4  0  0  0  0
 74 76  2  0  0  0  0
 73 77  4  0  0  0  0
 77 78  4  0  0  0  0
 71 79  4  0  0  0  0
 78 79  4  0  0  0  0
 70 80  4  0  0  0  0
 80 81  1  0  0  0  0
 81 82  2  0  0  0  0
 80 83  4  0  0  0  0
 82 84  1  0  0  0  0
 83 84  4  0  0  0  0
 84 85  4  0  0  0  0
 85 86  4  0  0  0  0
 86 87  4  0  0  0  0
 87 88  2  0  0  0  0
 88 89  4  0  0  0  0
 86 90  4  0  0  0  0
 89 90  4  0  0  0  0
 89 91  4  0  0  0  0
 91 92  1  0  0  0  0
 92 93  4  0  0  0  0
 93 94  4  0  0  0  0
 94 95  4  0  0  0  0
 95 96  4  0  0  0  0
 96 97  1  0  0  0  0
 97 98  4  0  0  0  0
 97 99  2  0  0  0  0
 92100  4  0  0  0  0
 96100  4  0  0  0  0
 91101  4  0  0  0  0
101102  1  0  0  0  0
102103  2  0  0  0  0
 64104  4  0  0  0  0
103104  1  0  0  0  0
101105  4  0  0  0  0
104105  4  0  0  0  0
 64106  1  0  0  0  0
 66107  1  0  0  0  0
 67108  1  0  0  0  0
 69109  1  0  0  0  0
 72110  1  0  0  0  0
 75111  1  0  0  0  0
 77112  1  0  0  0  0
 78113  1  0  0  0  0
 79114  1  0  0  0  0
 81115  1  0  0  0  0
 82116  1  0  0  0  0
 87117  1  0  0  0  0
 88118  1  0  0  0  0
 90119  1  0  0  0  0
 93120  1  0  0  0  0
 94121  1  0  0  0  0
 95122  1  0  0  0  0
 98123  1  0  0  0  0
100124  1  0  0  0  0
102125  1  0  0  0  0
103126  1  0  0  0  0
 22128  4  0  0  0  0
127128  3  0  0  0  0
127129  4  0  0  0  0
129130  3  0  0  0  0
131132  3  0  0  0  0
131133  4  0  0  0  0
133134  3  0  0  0  0
135136  3  0  0  0  0
135137  4  0  0  0  0
137138  3  0  0  0  0
139140  3  0  0  0  0
139141  4  0  0  0  0
141142  3  0  0  0  0
143144  3  0  0  0  0
143145  4  0  0  0  0
 85146  4  0  0  0  0
145146  3  0  0  0  0
130147  4  0  0  0  0
147148  4  0  0  0  0
148149  4  0  0  0  0
149150  2  0  0  0  0
150151  4  0  0  0  0
148152  4  0  0  0  0
151152  4  0  0  0  0
151153  4  0  0  0  0
153154  1  0  0  0  0
154155  4  0  0  0  0
155156  4  0  0  0  0
156157  1  0  0  0  0
157158  4  0  0  0  0
157159  2  0  0  0  0
156160  4  0  0  0  0
160161  4  0  0  0  0
154162  4  0  0  0  0
161162  4  0  0  0  0
153163  4  0  0  0  0
163164  1  0  0  0  0
164165  2  0  0  0  0
163166  4  0  0  0  0
165167  1  0  0  0  0
166167  4  0  0  0  0
132168  4  0  0  0  0
167168  4  0  0  0  0
168169  4  0  0  0  0
169170  4  0  0  0  0
170171  2  0  0  0  0
171172  4  0  0  0  0
169173  4  0  0  0  0
172173  4  0  0  0  0
172174  4  0  0  0  0
174175  1  0  0  0  0
175176  4  0  0  0  0
176177  4  0  0  0  0
177178  4  0  0  0  0
178179  4  0  0  0  0
179180  1  0  0  0  0
180181  4  0  0  0  0
180182  2  0  0  0  0
175183  4  0  0  0  0
179183  4  0  0  0  0
174184  4  0  0  0  0
184185  1  0  0  0  0
185186  2  0  0  0  0
147187  4  0  0  0  0
186187  1  0  0  0  0
184188  4  0  0  0  0
187188  4  0  0  0  0
149189  1  0  0  0  0
150190  1  0  0  0  0
152191  1  0  0  0  0
155192  1  0  0  0  0
158193  1  0  0  0  0
160194  1  0  0  0  0
161195  1  0  0  0  0
162196  1  0  0  0  0
164197  1  0  0  0  0
165198  1  0  0  0  0
170199  1  0  0  0  0
171200  1  0  0  0  0
173201  1  0  0  0  0
176202  1  0  0  0  0
177203  1  0  0  0  0
178204  1  0  0  0  0
181205  1  0  0  0  0
183206  1  0  0  0  0
185207  1  0  0  0  0
186208  1  0  0  0  0
134209  4  0  0  0  0
209210  4  0  0  0  0
210211  4  0  0  0  0
211212  2  0  0  0  0
212213  4  0  0  0  0
210214  4  0  0  0  0
213214  4  0  0  0  0
213215  4  0  0  0  0
215216  1  0  0  0  0
216217  4  0  0  0  0
217218  4  0  0  0  0
218219  1  0  0  0  0
219220  4  0  0  0  0
219221  2  0  0  0  0
218222  4  0  0  0  0
222223  4  0  0  0  0
216224  4  0  0  0  0
223224  4  0  0  0  0
215225  4  0  0  0  0
225226  1  0  0  0  0
226227  2  0  0  0  0
225228  4  0  0  0  0
227229  1  0  0  0  0
228229  4  0  0  0  0
136230  4  0  0  0  0
229230  4  0  0  0  0
230231  4  0  0  0  0
231232  4  0  0  0  0
232233  2  0  0  0  0
233234  4  0  0  0  0
231235  4  0  0  0  0
234235  4  0  0  0  0
234236  4  0  0  0  0
236237  1  0  0  0  0
237238  4  0  0  0  0
238239  4  0  0  0  0
239240  4  0  0  0  0
240241  4  0  0  0  0
241242  1  0  0  0  0
242243  4  0  0  0  0
242244  2  0  0  0  0
237245  4  0  0  0  0
241245  4  0  0  0  0
236246  4  0  0  0  0
246247  1  0  0  0  0
247248  2  0  0  0  0
209249  4  0  0  0  0
248249  1  0  0  0  0
246250  4  0  0  0  0
249250  4  0  0  0  0
211251  1  0  0  0  0
212252  1  0  0  0  0
214253  1  0  0  0  0
217254  1  0  0  0  0
220255  1  0  0  0  0
222256  1  0  0  0  0
223257  1  0  0  0  0
224258  1  0  0  0  0
226259  1  0  0  0  0
227260  1  0  0  0  0
232261  1  0  0  0  0
233262  1  0  0  0  0
235263  1  0  0  0  0
238264  1  0  0  0  0
239265  1  0  0  0  0
240266  1  0  0  0  0
243267  1  0  0  0  0
245268  1  0  0  0  0
247269  1  0  0  0  0
248270  1  0  0  0  0
138271  4  0  0  0  0
271272  4  0  0  0  0
272273  4  0  0  0  0
273274  2  0  0  0  0
274275  4  0  0  0  0
272276  4  0  0  0  0
275276  4  0  0  0  0
275277  4  0  0  0  0
277278  1  0  0  0  0
278279  4  0  0  0  0
279280  4  0  0  0  0
280281  1  0  0  0  0
281282  4  0  0  0  0
281283  2  0  0  0  0
280284  4  0  0  0  0
284285  4  0  0  0  0
278286  4  0  0  0  0
285286  4  0  0  0  0
277287  4  0  0  0  0
287288  1  0  0  0  0
288289  2  0  0  0  0
287290  4  0  0  0  0
289291  1  0  0  0  0
290291  4  0  0  0  0
140292  4  0  0  0  0
291292  4  0  0  0  0
292293  4  0  0  0  0
293294  4  0  0  0  0
294295  2  0  0  0  0
295296  4  0  0  0  0
293297  4  0  0  0  0
296297  4  0  0  0  0
296298  4  0  0  0  0
298299  1  0  0  0  0
299300  4  0  0  0  0
300301  4  0  0  0  0
301302  4  0  0  0  0
302303  4  0  0  0  0
303304  1  0  0  0  0
304305  4  0  0  0  0
304306  2  0  0  0  0
299307  4  0  0  0  0
303307  4  0  0  0  0
298308  4  0  0  0  0
308309  1  0  0  0  0
309310  2  0  0  0  0
271311  4  0  0  0  0
310311  1  0  0  0  0
308312  4  0  0  0  0
311312  4  0  0  0  0
273313  1  0  0  0  0
274314  1  0  0  0  0
276315  1  0  0  0  0
279316  1  0  0  0  0
282317  1  0  0  0  0
284318  1  0  0  0  0
285319  1  0  0  0  0
286320  1  0  0  0  0
288321  1  0  0  0  0
289322  1  0  0  0  0
294323  1  0  0  0  0
295324  1  0  0  0  0
297325  1  0  0  0  0
300326  1  0  0  0  0
301327  1  0  0  0  0
302328  1  0  0  0  0
305329  1  0  0  0  0
307330  1  0  0  0  0
309331  1  0  0  0  0
310332  1  0  0  0  0
142333  4  0  0  0  0
333334  4  0  0  0  0
334335  4  0  0  0  0
335336  2  0  0  0  0
336337  4  0  0  0  0
334338  4  0  0  0  0
337338  4  0  0  0  0
337339  4  0  0  0  0
339340  1  0  0  0  0
340341  4  0  0  0  0
341342  4  0  0  0  0
342343  1  0  0  0  0
343344  4  0  0  0  0
343345  2  0  0  0  0
342346  4  0  0  0  0
346347  4  0  0  0  0
340348  4  0  0  0  0
347348  4  0  0  0  0
339349  4  0  0  0  0
349350  1  0  0  0  0
350351  2  0  0  0  0
349352  4  0  0  0  0
351353  1  0  0  0  0
352353  4  0  0  0  0
144354  4  0  0  0  0
353354  4  0  0  0  0
354355  4  0  0  0  0
355356  4  0  0  0  0
356357  2  0  0  0  0
357358  4  0  0  0  0
355359  4  0  0  0  0
358359  4  0  0  0  0
358360  4  0  0  0  0
360361  1  0  0  0  0
361362  4  0  0  0  0
362363  4  0  0  0  0
363364  4  0  0  0  0
364365  4  0  0  0  0
365366  1  0  0  0  0
366367  4  0  0  0  0
366368  2  0  0  0  0
361369  4  0  0  0  0
365369  4  0  0  0  0
360370  4  0  0  0  0
370371  1  0  0  0  0
371372  2  0  0  0  0
333373  4  0  0  0  0
372373  1  0  0  0  0
370374  4  0  0  0  0
373374  4  0  0  0  0
335375  1  0  0  0  0
336376  1  0  0  0  0
338377  1  0  0  0  0
341378  1  0  0  0  0
344379  1  0  0  0  0
346380  1  0  0  0  0
347381  1  0  0  0  0
348382  1  0  0  0  0
350383  1  0  0  0  0
351384  1  0  0  0  0
356385  1  0  0  0  0
357386  1  0  0  0  0
359387  1  0  0  0  0
362388  1  0  0  0  0
363389  1  0  0  0  0
364390  1  0  0  0  0
367391  1  0  0  0  0
369392  1  0  0  0  0
371393  1  0  0  0  0
372394  1  0  0  0  0
M  END
