 xtb: 6.5.1 (b24c23e)
          07302223093D

278305  0     0  0            999 V2000
   52.0071    0.4587    0.0489 C   0  0  0  0  0  0  0  0  0  0  0  0
   52.6059    0.5374   -1.2021 C   0  0  0  0  0  0  0  0  0  0  0  0
   51.9408    0.6444   -2.4552 C   0  0  0  0  0  0  0  0  0  0  0  0
   52.8910    0.6453   -3.4380 C   0  0  0  0  0  0  0  0  0  0  0  0
   54.1682    0.5527   -2.8161 C   0  0  0  0  0  0  0  0  0  0  0  0
   53.9451    0.4884   -1.4695 N   0  0  0  0  0  0  0  0  0  0  0  0
   55.4226    0.5013   -3.4369 C   0  0  0  0  0  0  0  0  0  0  0  0
   55.4417    0.5980   -4.9150 C   0  0  0  0  0  0  0  0  0  0  0  0
   55.9901   -0.4273   -5.6879 C   0  0  0  0  0  0  0  0  0  0  0  0
   56.0041   -0.3537   -7.0703 C   0  0  0  0  0  0  0  0  0  0  0  0
   55.4660    0.7613   -7.7193 C   0  0  0  0  0  0  0  0  0  0  0  0
   55.5027    0.9133   -9.0977 N   0  0  0  0  0  0  0  0  0  0  0  0
   55.5911   -0.2646   -9.9503 C   0  0  0  0  0  0  0  0  0  0  0  0
   54.9277    1.7990   -6.9482 C   0  0  0  0  0  0  0  0  0  0  0  0
   54.9109    1.7135   -5.5689 C   0  0  0  0  0  0  0  0  0  0  0  0
   56.6396    0.3666   -2.7629 C   0  0  0  0  0  0  0  0  0  0  0  0
   57.9349    0.4087   -3.4165 C   0  0  0  0  0  0  0  0  0  0  0  0
   58.8598    0.2783   -2.4425 C   0  0  0  0  0  0  0  0  0  0  0  0
   56.8002    0.2220   -1.4182 N   0  0  0  0  0  0  0  0  0  0  0  0
   58.1288    0.1609   -1.1962 C   0  0  0  0  0  0  0  0  0  0  0  0
   58.7725    0.0226    0.0507 C   0  0  0  0  0  0  0  0  0  0  0  0
   58.1458   -0.0735    1.3085 C   0  0  0  0  0  0  0  0  0  0  0  0
   58.8015   -0.1900    2.5619 C   0  0  0  0  0  0  0  0  0  0  0  0
   57.8428   -0.2419    3.5366 C   0  0  0  0  0  0  0  0  0  0  0  0
   56.5709   -0.1649    2.9060 C   0  0  0  0  0  0  0  0  0  0  0  0
   56.8064   -0.0608    1.5600 N   0  0  0  0  0  0  0  0  0  0  0  0
   55.3153   -0.1519    3.5254 C   0  0  0  0  0  0  0  0  0  0  0  0
   55.2932   -0.3192    4.9963 C   0  0  0  0  0  0  0  0  0  0  0  0
   54.7264    0.6556    5.8198 C   0  0  0  0  0  0  0  0  0  0  0  0
   54.7043    0.5067    7.1960 C   0  0  0  0  0  0  0  0  0  0  0  0
   55.2523   -0.6352    7.7877 C   0  0  0  0  0  0  0  0  0  0  0  0
   55.2051   -0.8642    9.1547 N   0  0  0  0  0  0  0  0  0  0  0  0
   55.0920    0.2613   10.0724 C   0  0  0  0  0  0  0  0  0  0  0  0
   55.8124   -1.6209    6.9657 C   0  0  0  0  0  0  0  0  0  0  0  0
   55.8376   -1.4601    5.5934 C   0  0  0  0  0  0  0  0  0  0  0  0
   54.0987    0.0083    2.8521 C   0  0  0  0  0  0  0  0  0  0  0  0
   52.7950   -0.0380    3.4949 C   0  0  0  0  0  0  0  0  0  0  0  0
   51.8809    0.1455    2.5205 C   0  0  0  0  0  0  0  0  0  0  0  0
   52.6239    0.2882    1.2815 C   0  0  0  0  0  0  0  0  0  0  0  0
   53.9557    0.1978    1.5187 N   0  0  0  0  0  0  0  0  0  0  0  0
   50.9229    0.5132    0.0512 H   0  0  0  0  0  0  0  0  0  0  0  0
   50.8706    0.7004   -2.5763 H   0  0  0  0  0  0  0  0  0  0  0  0
   52.7249    0.6921   -4.5021 H   0  0  0  0  0  0  0  0  0  0  0  0
   54.6775    0.3960   -0.7735 H   0  0  0  0  0  0  0  0  0  0  0  0
   56.3939   -1.3062   -5.1971 H   0  0  0  0  0  0  0  0  0  0  0  0
   56.4356   -1.1685   -7.6386 H   0  0  0  0  0  0  0  0  0  0  0  0
   54.8219    1.5829   -9.4354 H   0  0  0  0  0  0  0  0  0  0  0  0
   54.8140   -0.9982   -9.7067 H   0  0  0  0  0  0  0  0  0  0  0  0
   55.4703    0.0584  -10.9843 H   0  0  0  0  0  0  0  0  0  0  0  0
   56.5713   -0.7309   -9.8429 H   0  0  0  0  0  0  0  0  0  0  0  0
   54.5232    2.6761   -7.4424 H   0  0  0  0  0  0  0  0  0  0  0  0
   54.5017    2.5312   -4.9855 H   0  0  0  0  0  0  0  0  0  0  0  0
   58.0952    0.5440   -4.4738 H   0  0  0  0  0  0  0  0  0  0  0  0
   59.9343    0.2679   -2.5324 H   0  0  0  0  0  0  0  0  0  0  0  0
   59.8712   -0.2218    2.6929 H   0  0  0  0  0  0  0  0  0  0  0  0
   58.0016   -0.3109    4.6004 H   0  0  0  0  0  0  0  0  0  0  0  0
   56.0782    0.0289    0.8590 H   0  0  0  0  0  0  0  0  0  0  0  0
   54.3155    1.5554    5.3749 H   0  0  0  0  0  0  0  0  0  0  0  0
   54.2587    1.2839    7.8048 H   0  0  0  0  0  0  0  0  0  0  0  0
   55.8888   -1.5456    9.4616 H   0  0  0  0  0  0  0  0  0  0  0  0
   54.1061    0.7192    9.9827 H   0  0  0  0  0  0  0  0  0  0  0  0
   55.8604    1.0185    9.8786 H   0  0  0  0  0  0  0  0  0  0  0  0
   55.2087   -0.1189   11.0873 H   0  0  0  0  0  0  0  0  0  0  0  0
   56.2267   -2.5176    7.4147 H   0  0  0  0  0  0  0  0  0  0  0  0
   56.2636   -2.2384    4.9696 H   0  0  0  0  0  0  0  0  0  0  0  0
   52.6248   -0.2082    4.5459 H   0  0  0  0  0  0  0  0  0  0  0  0
   50.8052    0.1720    2.6000 H   0  0  0  0  0  0  0  0  0  0  0  0
   99.0255    0.5280   -0.0764 C   0  0  0  0  0  0  0  0  0  0  0  0
   98.4255    0.6541    1.1703 C   0  0  0  0  0  0  0  0  0  0  0  0
   99.0886    0.8438    2.4147 C   0  0  0  0  0  0  0  0  0  0  0  0
   98.1398    0.8676    3.3986 C   0  0  0  0  0  0  0  0  0  0  0  0
   96.8652    0.7074    2.7855 C   0  0  0  0  0  0  0  0  0  0  0  0
   97.0886    0.5810    1.4432 N   0  0  0  0  0  0  0  0  0  0  0  0
   95.6130    0.6527    3.4106 C   0  0  0  0  0  0  0  0  0  0  0  0
   95.5908    0.8197    4.8824 C   0  0  0  0  0  0  0  0  0  0  0  0
   95.0693   -0.1821    5.7032 C   0  0  0  0  0  0  0  0  0  0  0  0
   95.0515   -0.0434    7.0805 C   0  0  0  0  0  0  0  0  0  0  0  0
   95.5581    1.1155    7.6758 C   0  0  0  0  0  0  0  0  0  0  0  0
   95.5150    1.3317    9.0452 N   0  0  0  0  0  0  0  0  0  0  0  0
   95.4587    0.1943    9.9535 C   0  0  0  0  0  0  0  0  0  0  0  0
   96.0692    2.1295    6.8562 C   0  0  0  0  0  0  0  0  0  0  0  0
   96.0904    1.9790    5.4824 C   0  0  0  0  0  0  0  0  0  0  0  0
   94.4000    0.4544    2.7455 C   0  0  0  0  0  0  0  0  0  0  0  0
   93.1037    0.4986    3.3971 C   0  0  0  0  0  0  0  0  0  0  0  0
   92.1824    0.3013    2.4311 C   0  0  0  0  0  0  0  0  0  0  0  0
   94.2433    0.2402    1.4096 N   0  0  0  0  0  0  0  0  0  0  0  0
   92.9167    0.1390    1.1916 C   0  0  0  0  0  0  0  0  0  0  0  0
   92.2769   -0.0774   -0.0462 C   0  0  0  0  0  0  0  0  0  0  0  0
   92.9062   -0.2316   -1.2969 C   0  0  0  0  0  0  0  0  0  0  0  0
   92.2535   -0.4357   -2.5407 C   0  0  0  0  0  0  0  0  0  0  0  0
   93.2132   -0.5233   -3.5116 C   0  0  0  0  0  0  0  0  0  0  0  0
   94.4829   -0.3798   -2.8881 C   0  0  0  0  0  0  0  0  0  0  0  0
   94.2449   -0.2036   -1.5501 N   0  0  0  0  0  0  0  0  0  0  0  0
   95.7375   -0.3691   -3.5096 C   0  0  0  0  0  0  0  0  0  0  0  0
   95.7616   -0.6212   -4.9683 C   0  0  0  0  0  0  0  0  0  0  0  0
   96.2955    0.3199   -5.8508 C   0  0  0  0  0  0  0  0  0  0  0  0
   96.3132    0.0925   -7.2164 C   0  0  0  0  0  0  0  0  0  0  0  0
   95.7945   -1.0966   -7.7373 C   0  0  0  0  0  0  0  0  0  0  0  0
   95.8387   -1.4019   -9.0893 N   0  0  0  0  0  0  0  0  0  0  0  0
   95.9064   -0.3282  -10.0712 C   0  0  0  0  0  0  0  0  0  0  0  0
   95.2688   -2.0491   -6.8556 C   0  0  0  0  0  0  0  0  0  0  0  0
   95.2473   -1.8100   -5.4947 C   0  0  0  0  0  0  0  0  0  0  0  0
   96.9489   -0.1352   -2.8486 C   0  0  0  0  0  0  0  0  0  0  0  0
   98.2535   -0.1760   -3.4899 C   0  0  0  0  0  0  0  0  0  0  0  0
   99.1613    0.0886   -2.5283 C   0  0  0  0  0  0  0  0  0  0  0  0
   98.4141    0.2747   -1.2975 C   0  0  0  0  0  0  0  0  0  0  0  0
   97.0858    0.1309   -1.5276 N   0  0  0  0  0  0  0  0  0  0  0  0
  100.1076    0.6140   -0.0835 H   0  0  0  0  0  0  0  0  0  0  0  0
  100.1569    0.9364    2.5301 H   0  0  0  0  0  0  0  0  0  0  0  0
   98.3056    0.9737    4.4585 H   0  0  0  0  0  0  0  0  0  0  0  0
   96.3580    0.4328    0.7550 H   0  0  0  0  0  0  0  0  0  0  0  0
   94.6897   -1.0938    5.2547 H   0  0  0  0  0  0  0  0  0  0  0  0
   94.6414   -0.8416    7.6869 H   0  0  0  0  0  0  0  0  0  0  0  0
   96.1739    2.0375    9.3511 H   0  0  0  0  0  0  0  0  0  0  0  0
   96.2567   -0.5278    9.7457 H   0  0  0  0  0  0  0  0  0  0  0  0
   95.5688    0.5701   10.9708 H   0  0  0  0  0  0  0  0  0  0  0  0
   94.4924   -0.3045    9.8688 H   0  0  0  0  0  0  0  0  0  0  0  0
   96.4488    3.0399    7.3082 H   0  0  0  0  0  0  0  0  0  0  0  0
   96.4778    2.7790    4.8609 H   0  0  0  0  0  0  0  0  0  0  0  0
   92.9400    0.6810    4.4469 H   0  0  0  0  0  0  0  0  0  0  0  0
   91.1084    0.2711    2.5221 H   0  0  0  0  0  0  0  0  0  0  0  0
   91.1848   -0.4992   -2.6684 H   0  0  0  0  0  0  0  0  0  0  0  0
   93.0562   -0.6583   -4.5694 H   0  0  0  0  0  0  0  0  0  0  0  0
   94.9709   -0.0557   -0.8567 H   0  0  0  0  0  0  0  0  0  0  0  0
   96.6826    1.2554   -5.4618 H   0  0  0  0  0  0  0  0  0  0  0  0
   96.7320    0.8458   -7.8723 H   0  0  0  0  0  0  0  0  0  0  0  0
   95.1765   -2.1226   -9.3504 H   0  0  0  0  0  0  0  0  0  0  0  0
   96.8757    0.1690  -10.0156 H   0  0  0  0  0  0  0  0  0  0  0  0
   95.1123    0.4112   -9.9158 H   0  0  0  0  0  0  0  0  0  0  0  0
   95.7980   -0.7705  -11.0616 H   0  0  0  0  0  0  0  0  0  0  0  0
   94.8776   -2.9815   -7.2489 H   0  0  0  0  0  0  0  0  0  0  0  0
   94.8470   -2.5625   -4.8240 H   0  0  0  0  0  0  0  0  0  0  0  0
   98.4288   -0.3969   -4.5306 H   0  0  0  0  0  0  0  0  0  0  0  0
  100.2357    0.1445   -2.6108 H   0  0  0  0  0  0  0  0  0  0  0  0
   61.4001   -0.0332    0.0628 C   0  0  0  0  0  0  0  0  0  0  0  0
   60.1776   -0.0112    0.0556 C   0  0  0  0  0  0  0  0  0  0  0  0
   62.7487   -0.0486    0.0645 C   0  0  0  0  0  0  0  0  0  0  0  0
   63.9715   -0.0563    0.0602 C   0  0  0  0  0  0  0  0  0  0  0  0
   74.8528   -0.1192    0.0074 C   0  0  0  0  0  0  0  0  0  0  0  0
   73.6298   -0.1195    0.0224 C   0  0  0  0  0  0  0  0  0  0  0  0
   76.2008   -0.1176   -0.0020 C   0  0  0  0  0  0  0  0  0  0  0  0
   77.4238   -0.1151   -0.0151 C   0  0  0  0  0  0  0  0  0  0  0  0
   88.3023   -0.1975   -0.0553 C   0  0  0  0  0  0  0  0  0  0  0  0
   87.0796   -0.2095   -0.0502 C   0  0  0  0  0  0  0  0  0  0  0  0
   89.6506   -0.1702   -0.0551 C   0  0  0  0  0  0  0  0  0  0  0  0
   90.8727   -0.1338   -0.0493 C   0  0  0  0  0  0  0  0  0  0  0  0
   65.3760   -0.0512    0.0551 C   0  0  0  0  0  0  0  0  0  0  0  0
   66.0056   -0.0008    1.3145 C   0  0  0  0  0  0  0  0  0  0  0  0
   65.3568    0.0116    2.5755 C   0  0  0  0  0  0  0  0  0  0  0  0
   66.3225    0.0418    3.5452 C   0  0  0  0  0  0  0  0  0  0  0  0
   67.5894    0.0579    2.9025 C   0  0  0  0  0  0  0  0  0  0  0  0
   67.3468    0.0263    1.5547 N   0  0  0  0  0  0  0  0  0  0  0  0
   68.8499    0.0656    3.5151 C   0  0  0  0  0  0  0  0  0  0  0  0
   68.8646    0.1366    4.9953 C   0  0  0  0  0  0  0  0  0  0  0  0
   69.4610   -0.8740    5.7547 C   0  0  0  0  0  0  0  0  0  0  0  0
   69.4693   -0.8094    7.1351 C   0  0  0  0  0  0  0  0  0  0  0  0
   68.8857    0.2758    7.8005 C   0  0  0  0  0  0  0  0  0  0  0  0
   68.9708    0.3263    9.1843 N   0  0  0  0  0  0  0  0  0  0  0  0
   68.0036    1.1138    9.9370 C   0  0  0  0  0  0  0  0  0  0  0  0
   68.3006    1.2963    7.0455 C   0  0  0  0  0  0  0  0  0  0  0  0
   68.2855    1.2170    5.6633 C   0  0  0  0  0  0  0  0  0  0  0  0
   70.0729    0.0147    2.8432 C   0  0  0  0  0  0  0  0  0  0  0  0
   71.3630    0.0878    3.5044 C   0  0  0  0  0  0  0  0  0  0  0  0
   72.2963    0.0261    2.5316 C   0  0  0  0  0  0  0  0  0  0  0  0
   70.2442   -0.0739    1.4946 N   0  0  0  0  0  0  0  0  0  0  0  0
   71.5749   -0.0717    1.2788 C   0  0  0  0  0  0  0  0  0  0  0  0
   72.2258   -0.1237    0.0291 C   0  0  0  0  0  0  0  0  0  0  0  0
   71.5964   -0.1562   -1.2312 C   0  0  0  0  0  0  0  0  0  0  0  0
   72.2458   -0.1396   -2.4918 C   0  0  0  0  0  0  0  0  0  0  0  0
   71.2807   -0.1482   -3.4623 C   0  0  0  0  0  0  0  0  0  0  0  0
   70.0135   -0.1827   -2.8207 C   0  0  0  0  0  0  0  0  0  0  0  0
   70.2554   -0.1809   -1.4724 N   0  0  0  0  0  0  0  0  0  0  0  0
   68.7530   -0.1871   -3.4330 C   0  0  0  0  0  0  0  0  0  0  0  0
   68.7373   -0.2182   -4.9141 C   0  0  0  0  0  0  0  0  0  0  0  0
   68.1252    0.8043   -5.6417 C   0  0  0  0  0  0  0  0  0  0  0  0
   68.1128    0.7899   -7.0258 C   0  0  0  0  0  0  0  0  0  0  0  0
   68.7037   -0.2683   -7.7223 C   0  0  0  0  0  0  0  0  0  0  0  0
   68.7604   -0.3100   -9.1076 N   0  0  0  0  0  0  0  0  0  0  0  0
   67.7586    0.4022   -9.8898 C   0  0  0  0  0  0  0  0  0  0  0  0
   69.3220   -1.2946   -6.9975 C   0  0  0  0  0  0  0  0  0  0  0  0
   69.3406   -1.2658   -5.6159 C   0  0  0  0  0  0  0  0  0  0  0  0
   67.5299   -0.1621   -2.7592 C   0  0  0  0  0  0  0  0  0  0  0  0
   66.2409   -0.2481   -3.4208 C   0  0  0  0  0  0  0  0  0  0  0  0
   65.3069   -0.2064   -2.4475 C   0  0  0  0  0  0  0  0  0  0  0  0
   66.0269   -0.1045   -1.1943 C   0  0  0  0  0  0  0  0  0  0  0  0
   67.3578   -0.0872   -1.4102 N   0  0  0  0  0  0  0  0  0  0  0  0
   64.2880   -0.0092    2.7150 H   0  0  0  0  0  0  0  0  0  0  0  0
   66.1709    0.0384    4.6123 H   0  0  0  0  0  0  0  0  0  0  0  0
   68.0687    0.0146    0.8418 H   0  0  0  0  0  0  0  0  0  0  0  0
   69.9015   -1.7291    5.2539 H   0  0  0  0  0  0  0  0  0  0  0  0
   69.9290   -1.6044    7.7127 H   0  0  0  0  0  0  0  0  0  0  0  0
   69.1322   -0.5837    9.5989 H   0  0  0  0  0  0  0  0  0  0  0  0
   66.9737    0.8534    9.6665 H   0  0  0  0  0  0  0  0  0  0  0  0
   68.1592    0.9143   10.9972 H   0  0  0  0  0  0  0  0  0  0  0  0
   68.1645    2.1772    9.7550 H   0  0  0  0  0  0  0  0  0  0  0  0
   67.8589    2.1581    7.5305 H   0  0  0  0  0  0  0  0  0  0  0  0
   67.8380    2.0211    5.0889 H   0  0  0  0  0  0  0  0  0  0  0  0
   71.5143    0.1920    4.5666 H   0  0  0  0  0  0  0  0  0  0  0  0
   73.3701    0.0548    2.6261 H   0  0  0  0  0  0  0  0  0  0  0  0
   73.3146   -0.1127   -2.6305 H   0  0  0  0  0  0  0  0  0  0  0  0
   71.4334   -0.1176   -4.5287 H   0  0  0  0  0  0  0  0  0  0  0  0
   69.5333   -0.1815   -0.7598 H   0  0  0  0  0  0  0  0  0  0  0  0
   67.6720    1.6359   -5.1132 H   0  0  0  0  0  0  0  0  0  0  0  0
   67.6447    1.6082   -7.5591 H   0  0  0  0  0  0  0  0  0  0  0  0
   68.9341   -1.2426   -9.4630 H   0  0  0  0  0  0  0  0  0  0  0  0
   67.9031    1.4788   -9.7914 H   0  0  0  0  0  0  0  0  0  0  0  0
   67.8903    0.1270  -10.9363 H   0  0  0  0  0  0  0  0  0  0  0  0
   66.7417    0.1444   -9.5724 H   0  0  0  0  0  0  0  0  0  0  0  0
   69.7867   -2.1183   -7.5292 H   0  0  0  0  0  0  0  0  0  0  0  0
   69.8062   -2.0781   -5.0683 H   0  0  0  0  0  0  0  0  0  0  0  0
   66.0912   -0.3477   -4.4837 H   0  0  0  0  0  0  0  0  0  0  0  0
   64.2336   -0.2496   -2.5422 H   0  0  0  0  0  0  0  0  0  0  0  0
   78.8277   -0.1055   -0.0221 C   0  0  0  0  0  0  0  0  0  0  0  0
   79.4571   -0.0374    1.2368 C   0  0  0  0  0  0  0  0  0  0  0  0
   78.8078   -0.0049    2.4971 C   0  0  0  0  0  0  0  0  0  0  0  0
   79.7731    0.0383    3.4666 C   0  0  0  0  0  0  0  0  0  0  0  0
   81.0403    0.0418    2.8242 C   0  0  0  0  0  0  0  0  0  0  0  0
   80.7982   -0.0093    1.4769 N   0  0  0  0  0  0  0  0  0  0  0  0
   82.3006    0.0552    3.4369 C   0  0  0  0  0  0  0  0  0  0  0  0
   82.3145    0.1501    4.9155 C   0  0  0  0  0  0  0  0  0  0  0  0
   82.9097   -0.8485    5.6917 C   0  0  0  0  0  0  0  0  0  0  0  0
   82.9129   -0.7638    7.0710 C   0  0  0  0  0  0  0  0  0  0  0  0
   82.3254    0.3301    7.7185 C   0  0  0  0  0  0  0  0  0  0  0  0
   82.4032    0.4001    9.1015 N   0  0  0  0  0  0  0  0  0  0  0  0
   81.4328    1.1990    9.8380 C   0  0  0  0  0  0  0  0  0  0  0  0
   81.7428    1.3394    6.9465 C   0  0  0  0  0  0  0  0  0  0  0  0
   81.7327    1.2400    5.5657 C   0  0  0  0  0  0  0  0  0  0  0  0
   83.5233   -0.0123    2.7657 C   0  0  0  0  0  0  0  0  0  0  0  0
   84.8137    0.0688    3.4253 C   0  0  0  0  0  0  0  0  0  0  0  0
   85.7466   -0.0155    2.4539 C   0  0  0  0  0  0  0  0  0  0  0  0
   83.6939   -0.1276    1.4191 N   0  0  0  0  0  0  0  0  0  0  0  0
   85.0248   -0.1351    1.2031 C   0  0  0  0  0  0  0  0  0  0  0  0
   85.6751   -0.2148   -0.0451 C   0  0  0  0  0  0  0  0  0  0  0  0
   85.0464   -0.2685   -1.3048 C   0  0  0  0  0  0  0  0  0  0  0  0
   85.6968   -0.2790   -2.5650 C   0  0  0  0  0  0  0  0  0  0  0  0
   84.7324   -0.2913   -3.5363 C   0  0  0  0  0  0  0  0  0  0  0  0
   83.4644   -0.3012   -2.8954 C   0  0  0  0  0  0  0  0  0  0  0  0
   83.7053   -0.2836   -1.5470 N   0  0  0  0  0  0  0  0  0  0  0  0
   82.2041   -0.2964   -3.5084 C   0  0  0  0  0  0  0  0  0  0  0  0
   82.1876   -0.3374   -4.9894 C   0  0  0  0  0  0  0  0  0  0  0  0
   81.5895    0.6896   -5.7223 C   0  0  0  0  0  0  0  0  0  0  0  0
   81.5754    0.6675   -7.1063 C   0  0  0  0  0  0  0  0  0  0  0  0
   82.1502   -0.4031   -7.7972 C   0  0  0  0  0  0  0  0  0  0  0  0
   82.2046   -0.4538   -9.1824 N   0  0  0  0  0  0  0  0  0  0  0  0
   81.2150    0.2719   -9.9678 C   0  0  0  0  0  0  0  0  0  0  0  0
   82.7545   -1.4339   -7.0671 C   0  0  0  0  0  0  0  0  0  0  0  0
   82.7751   -1.3975   -5.6856 C   0  0  0  0  0  0  0  0  0  0  0  0
   80.9813   -0.2527   -2.8354 C   0  0  0  0  0  0  0  0  0  0  0  0
   79.6917   -0.3334   -3.4965 C   0  0  0  0  0  0  0  0  0  0  0  0
   78.7580   -0.2796   -2.5234 C   0  0  0  0  0  0  0  0  0  0  0  0
   79.4788   -0.1736   -1.2710 C   0  0  0  0  0  0  0  0  0  0  0  0
   80.8095   -0.1662   -1.4868 N   0  0  0  0  0  0  0  0  0  0  0  0
   77.7389   -0.0212    2.6368 H   0  0  0  0  0  0  0  0  0  0  0  0
   79.6208    0.0512    4.5335 H   0  0  0  0  0  0  0  0  0  0  0  0
   81.5203   -0.0346    0.7647 H   0  0  0  0  0  0  0  0  0  0  0  0
   83.3524   -1.7106    5.2051 H   0  0  0  0  0  0  0  0  0  0  0  0
   83.3712   -1.5501    7.6617 H   0  0  0  0  0  0  0  0  0  0  0  0
   82.5638   -0.5034    9.5305 H   0  0  0  0  0  0  0  0  0  0  0  0
   80.4044    0.9400    9.5614 H   0  0  0  0  0  0  0  0  0  0  0  0
   81.5786    1.0098   10.9015 H   0  0  0  0  0  0  0  0  0  0  0  0
   81.5996    2.2598    9.6465 H   0  0  0  0  0  0  0  0  0  0  0  0
   81.2989    2.2078    7.4174 H   0  0  0  0  0  0  0  0  0  0  0  0
   81.2867    2.0354    4.9782 H   0  0  0  0  0  0  0  0  0  0  0  0
   84.9655    0.1936    4.4851 H   0  0  0  0  0  0  0  0  0  0  0  0
   86.8205    0.0106    2.5480 H   0  0  0  0  0  0  0  0  0  0  0  0
   86.7660   -0.2666   -2.7030 H   0  0  0  0  0  0  0  0  0  0  0  0
   84.8862   -0.2787   -4.6029 H   0  0  0  0  0  0  0  0  0  0  0  0
   82.9825   -0.2642   -0.8353 H   0  0  0  0  0  0  0  0  0  0  0  0
   81.1486    1.5305   -5.1981 H   0  0  0  0  0  0  0  0  0  0  0  0
   81.1185    1.4894   -7.6437 H   0  0  0  0  0  0  0  0  0  0  0  0
   82.3615   -1.3913   -9.5328 H   0  0  0  0  0  0  0  0  0  0  0  0
   81.3795    1.3462   -9.8761 H   0  0  0  0  0  0  0  0  0  0  0  0
   81.3403   -0.0120  -11.0127 H   0  0  0  0  0  0  0  0  0  0  0  0
   80.1939    0.0348   -9.6477 H   0  0  0  0  0  0  0  0  0  0  0  0
   83.2066   -2.2673   -7.5945 H   0  0  0  0  0  0  0  0  0  0  0  0
   83.2295   -2.2133   -5.1339 H   0  0  0  0  0  0  0  0  0  0  0  0
   79.5413   -0.4382   -4.5588 H   0  0  0  0  0  0  0  0  0  0  0  0
   77.6844   -0.3155   -2.6180 H   0  0  0  0  0  0  0  0  0  0  0  0
  1  2  4  0  0  0  0
  2  3  4  0  0  0  0
  3  4  2  0  0  0  0
  4  5  4  0  0  0  0
  2  6  4  0  0  0  0
  5  6  4  0  0  0  0
  5  7  4  0  0  0  0
  7  8  1  0  0  0  0
  8  9  4  0  0  0  0
  9 10  4  0  0  0  0
 10 11  4  0  0  0  0
 11 12  1  0  0  0  0
 12 13  1  0  0  0  0
 11 14  4  0  0  0  0
  8 15  4  0  0  0  0
 14 15  4  0  0  0  0
  7 16  4  0  0  0  0
 16 17  1  0  0  0  0
 17 18  2  0  0  0  0
 16 19  4  0  0  0  0
 18 20  1  0  0  0  0
 19 20  4  0  0  0  0
 20 21  4  0  0  0  0
 21 22  4  0  0  0  0
 22 23  4  0  0  0  0
 23 24  2  0  0  0  0
 24 25  4  0  0  0  0
 22 26  4  0  0  0  0
 25 26  4  0  0  0  0
 25 27  4  0  0  0  0
 27 28  1  0  0  0  0
 28 29  4  0  0  0  0
 29 30  4  0  0  0  0
 30 31  4  0  0  0  0
 31 32  1  0  0  0  0
 32 33  1  0  0  0  0
 31 34  4  0  0  0  0
 28 35  4  0  0  0  0
 34 35  4  0  0  0  0
 27 36  4  0  0  0  0
 36 37  1  0  0  0  0
 37 38  2  0  0  0  0
  1 39  4  0  0  0  0
 38 39  1  0  0  0  0
 36 40  4  0  0  0  0
 39 40  4  0  0  0  0
  1 41  1  0  0  0  0
  3 42  1  0  0  0  0
  4 43  1  0  0  0  0
  6 44  1  0  0  0  0
  9 45  1  0  0  0  0
 10 46  1  0  0  0  0
 12 47  1  0  0  0  0
 13 48  1  0  0  0  0
 13 49  1  0  0  0  0
 13 50  1  0  0  0  0
 14 51  1  0  0  0  0
 15 52  1  0  0  0  0
 17 53  1  0  0  0  0
 18 54  1  0  0  0  0
 23 55  1  0  0  0  0
 24 56  1  0  0  0  0
 26 57  1  0  0  0  0
 29 58  1  0  0  0  0
 30 59  1  0  0  0  0
 32 60  1  0  0  0  0
 33 61  1  0  0  0  0
 33 62  1  0  0  0  0
 33 63  1  0  0  0  0
 34 64  1  0  0  0  0
 35 65  1  0  0  0  0
 37 66  1  0  0  0  0
 38 67  1  0  0  0  0
 68 69  4  0  0  0  0
 69 70  4  0  0  0  0
 70 71  2  0  0  0  0
 71 72  4  0  0  0  0
 69 73  4  0  0  0  0
 72 73  4  0  0  0  0
 72 74  4  0  0  0  0
 74 75  1  0  0  0  0
 75 76  4  0  0  0  0
 76 77  4  0  0  0  0
 77 78  4  0  0  0  0
 78 79  1  0  0  0  0
 79 80  1  0  0  0  0
 78 81  4  0  0  0  0
 75 82  4  0  0  0  0
 81 82  4  0  0  0  0
 74 83  4  0  0  0  0
 83 84  1  0  0  0  0
 84 85  2  0  0  0  0
 83 86  4  0  0  0  0
 85 87  1  0  0  0  0
 86 87  4  0  0  0  0
 87 88  4  0  0  0  0
 88 89  4  0  0  0  0
 89 90  4  0  0  0  0
 90 91  2  0  0  0  0
 91 92  4  0  0  0  0
 89 93  4  0  0  0  0
 92 93  4  0  0  0  0
 92 94  4  0  0  0  0
 94 95  1  0  0  0  0
 95 96  4  0  0  0  0
 96 97  4  0  0  0  0
 97 98  4  0  0  0  0
 98 99  1  0  0  0  0
 99100  1  0  0  0  0
 98101  4  0  0  0  0
 95102  4  0  0  0  0
101102  4  0  0  0  0
 94103  4  0  0  0  0
103104  1  0  0  0  0
104105  2  0  0  0  0
 68106  4  0  0  0  0
105106  1  0  0  0  0
103107  4  0  0  0  0
106107  4  0  0  0  0
 68108  1  0  0  0  0
 70109  1  0  0  0  0
 71110  1  0  0  0  0
 73111  1  0  0  0  0
 76112  1  0  0  0  0
 77113  1  0  0  0  0
 79114  1  0  0  0  0
 80115  1  0  0  0  0
 80116  1  0  0  0  0
 80117  1  0  0  0  0
 81118  1  0  0  0  0
 82119  1  0  0  0  0
 84120  1  0  0  0  0
 85121  1  0  0  0  0
 90122  1  0  0  0  0
 91123  1  0  0  0  0
 93124  1  0  0  0  0
 96125  1  0  0  0  0
 97126  1  0  0  0  0
 99127  1  0  0  0  0
100128  1  0  0  0  0
100129  1  0  0  0  0
100130  1  0  0  0  0
101131  1  0  0  0  0
102132  1  0  0  0  0
104133  1  0  0  0  0
105134  1  0  0  0  0
 21136  4  0  0  0  0
135136  3  0  0  0  0
135137  4  0  0  0  0
137138  3  0  0  0  0
139140  3  0  0  0  0
139141  4  0  0  0  0
141142  3  0  0  0  0
143144  3  0  0  0  0
143145  4  0  0  0  0
 88146  4  0  0  0  0
145146  3  0  0  0  0
138147  4  0  0  0  0
147148  4  0  0  0  0
148149  4  0  0  0  0
149150  2  0  0  0  0
150151  4  0  0  0  0
148152  4  0  0  0  0
151152  4  0  0  0  0
151153  4  0  0  0  0
153154  1  0  0  0  0
154155  4  0  0  0  0
155156  4  0  0  0  0
156157  4  0  0  0  0
157158  1  0  0  0  0
158159  1  0  0  0  0
157160  4  0  0  0  0
154161  4  0  0  0  0
160161  4  0  0  0  0
153162  4  0  0  0  0
162163  1  0  0  0  0
163164  2  0  0  0  0
162165  4  0  0  0  0
164166  1  0  0  0  0
165166  4  0  0  0  0
140167  4  0  0  0  0
166167  4  0  0  0  0
167168  4  0  0  0  0
168169  4  0  0  0  0
169170  2  0  0  0  0
170171  4  0  0  0  0
168172  4  0  0  0  0
171172  4  0  0  0  0
171173  4  0  0  0  0
173174  1  0  0  0  0
174175  4  0  0  0  0
175176  4  0  0  0  0
176177  4  0  0  0  0
177178  1  0  0  0  0
178179  1  0  0  0  0
177180  4  0  0  0  0
174181  4  0  0  0  0
180181  4  0  0  0  0
173182  4  0  0  0  0
182183  1  0  0  0  0
183184  2  0  0  0  0
147185  4  0  0  0  0
184185  1  0  0  0  0
182186  4  0  0  0  0
185186  4  0  0  0  0
149187  1  0  0  0  0
150188  1  0  0  0  0
152189  1  0  0  0  0
155190  1  0  0  0  0
156191  1  0  0  0  0
158192  1  0  0  0  0
159193  1  0  0  0  0
159194  1  0  0  0  0
159195  1  0  0  0  0
160196  1  0  0  0  0
161197  1  0  0  0  0
163198  1  0  0  0  0
164199  1  0  0  0  0
169200  1  0  0  0  0
170201  1  0  0  0  0
172202  1  0  0  0  0
175203  1  0  0  0  0
176204  1  0  0  0  0
178205  1  0  0  0  0
179206  1  0  0  0  0
179207  1  0  0  0  0
179208  1  0  0  0  0
180209  1  0  0  0  0
181210  1  0  0  0  0
183211  1  0  0  0  0
184212  1  0  0  0  0
142213  4  0  0  0  0
213214  4  0  0  0  0
214215  4  0  0  0  0
215216  2  0  0  0  0
216217  4  0  0  0  0
214218  4  0  0  0  0
217218  4  0  0  0  0
217219  4  0  0  0  0
219220  1  0  0  0  0
220221  4  0  0  0  0
221222  4  0  0  0  0
222223  4  0  0  0  0
223224  1  0  0  0  0
224225  1  0  0  0  0
223226  4  0  0  0  0
220227  4  0  0  0  0
226227  4  0  0  0  0
219228  4  0  0  0  0
228229  1  0  0  0  0
229230  2  0  0  0  0
228231  4  0  0  0  0
230232  1  0  0  0  0
231232  4  0  0  0  0
144233  4  0  0  0  0
232233  4  0  0  0  0
233234  4  0  0  0  0
234235  4  0  0  0  0
235236  2  0  0  0  0
236237  4  0  0  0  0
234238  4  0  0  0  0
237238  4  0  0  0  0
237239  4  0  0  0  0
239240  1  0  0  0  0
240241  4  0  0  0  0
241242  4  0  0  0  0
242243  4  0  0  0  0
243244  1  0  0  0  0
244245  1  0  0  0  0
243246  4  0  0  0  0
240247  4  0  0  0  0
246247  4  0  0  0  0
239248  4  0  0  0  0
248249  1  0  0  0  0
249250  2  0  0  0  0
213251  4  0  0  0  0
250251  1  0  0  0  0
248252  4  0  0  0  0
251252  4  0  0  0  0
215253  1  0  0  0  0
216254  1  0  0  0  0
218255  1  0  0  0  0
221256  1  0  0  0  0
222257  1  0  0  0  0
224258  1  0  0  0  0
225259  1  0  0  0  0
225260  1  0  0  0  0
225261  1  0  0  0  0
226262  1  0  0  0  0
227263  1  0  0  0  0
229264  1  0  0  0  0
230265  1  0  0  0  0
235266  1  0  0  0  0
236267  1  0  0  0  0
238268  1  0  0  0  0
241269  1  0  0  0  0
242270  1  0  0  0  0
244271  1  0  0  0  0
245272  1  0  0  0  0
245273  1  0  0  0  0
245274  1  0  0  0  0
246275  1  0  0  0  0
247276  1  0  0  0  0
249277  1  0  0  0  0
250278  1  0  0  0  0
M  END
