 xtb: 6.5.1 (b24c23e)
          07292214143D

254281  0     0  0            999 V2000
   44.0230   -0.1322    0.0393 C   0  0  0  0  0  0  0  0  0  0  0  0
   44.6313   -0.9977    0.9397 C   0  0  0  0  0  0  0  0  0  0  0  0
   43.9793   -1.9190    1.8060 C   0  0  0  0  0  0  0  0  0  0  0  0
   44.9389   -2.5613    2.5374 C   0  0  0  0  0  0  0  0  0  0  0  0
   46.2078   -2.0446    2.1499 C   0  0  0  0  0  0  0  0  0  0  0  0
   45.9719   -1.1152    1.1764 N   0  0  0  0  0  0  0  0  0  0  0  0
   47.4680   -2.4061    2.6424 C   0  0  0  0  0  0  0  0  0  0  0  0
   47.4971   -3.4110    3.7308 C   0  0  0  0  0  0  0  0  0  0  0  0
   48.1849   -4.6163    3.5674 C   0  0  0  0  0  0  0  0  0  0  0  0
   48.2085   -5.5627    4.5759 C   0  0  0  0  0  0  0  0  0  0  0  0
   47.5525   -5.3161    5.7847 C   0  0  0  0  0  0  0  0  0  0  0  0
   47.5402   -6.2770    6.7808 N   0  0  0  0  0  0  0  0  0  0  0  0
   46.8591   -4.1152    5.9552 C   0  0  0  0  0  0  0  0  0  0  0  0
   46.8328   -3.1780    4.9376 C   0  0  0  0  0  0  0  0  0  0  0  0
   48.6814   -1.8907    2.1779 C   0  0  0  0  0  0  0  0  0  0  0  0
   49.9745   -2.2209    2.7485 C   0  0  0  0  0  0  0  0  0  0  0  0
   50.8951   -1.5480    2.0265 C   0  0  0  0  0  0  0  0  0  0  0  0
   48.8369   -1.0127    1.1485 N   0  0  0  0  0  0  0  0  0  0  0  0
   50.1626   -0.7996    1.0243 C   0  0  0  0  0  0  0  0  0  0  0  0
   50.8010    0.0063    0.0596 C   0  0  0  0  0  0  0  0  0  0  0  0
   50.1673    0.8075   -0.9097 C   0  0  0  0  0  0  0  0  0  0  0  0
   50.8147    1.5961   -1.8968 C   0  0  0  0  0  0  0  0  0  0  0  0
   49.8505    2.2477   -2.6155 C   0  0  0  0  0  0  0  0  0  0  0  0
   48.5836    1.8831   -2.0824 C   0  0  0  0  0  0  0  0  0  0  0  0
   48.8269    1.0014   -1.0621 N   0  0  0  0  0  0  0  0  0  0  0  0
   47.3236    2.3145   -2.5137 C   0  0  0  0  0  0  0  0  0  0  0  0
   47.2966    3.3208   -3.5997 C   0  0  0  0  0  0  0  0  0  0  0  0
   46.6340    3.0572   -4.8015 C   0  0  0  0  0  0  0  0  0  0  0  0
   46.6119    3.9927   -5.8203 C   0  0  0  0  0  0  0  0  0  0  0  0
   47.2442    5.2275   -5.6528 C   0  0  0  0  0  0  0  0  0  0  0  0
   47.2583    6.1501   -6.6842 N   0  0  0  0  0  0  0  0  0  0  0  0
   47.9128    5.4979   -4.4561 C   0  0  0  0  0  0  0  0  0  0  0  0
   47.9377    4.5530   -3.4459 C   0  0  0  0  0  0  0  0  0  0  0  0
   46.1071    1.8590   -1.9920 C   0  0  0  0  0  0  0  0  0  0  0  0
   44.8024    2.3513   -2.4048 C   0  0  0  0  0  0  0  0  0  0  0  0
   43.8892    1.6575   -1.6951 C   0  0  0  0  0  0  0  0  0  0  0  0
   44.6351    0.7545   -0.8372 C   0  0  0  0  0  0  0  0  0  0  0  0
   45.9671    0.9119   -1.0342 N   0  0  0  0  0  0  0  0  0  0  0  0
   42.9378   -0.1563    0.0284 H   0  0  0  0  0  0  0  0  0  0  0  0
   42.9119   -2.0673    1.8492 H   0  0  0  0  0  0  0  0  0  0  0  0
   44.7864   -3.3334    3.2740 H   0  0  0  0  0  0  0  0  0  0  0  0
   46.6981   -0.5943    0.6963 H   0  0  0  0  0  0  0  0  0  0  0  0
   48.6881   -4.8196    2.6285 H   0  0  0  0  0  0  0  0  0  0  0  0
   48.7365   -6.4991    4.4324 H   0  0  0  0  0  0  0  0  0  0  0  0
   47.3510   -5.9278    7.7066 H   0  0  0  0  0  0  0  0  0  0  0  0
   48.2990   -6.9387    6.7431 H   0  0  0  0  0  0  0  0  0  0  0  0
   46.3456   -3.9189    6.8901 H   0  0  0  0  0  0  0  0  0  0  0  0
   46.3092   -2.2398    5.0867 H   0  0  0  0  0  0  0  0  0  0  0  0
   50.1346   -2.8671    3.5965 H   0  0  0  0  0  0  0  0  0  0  0  0
   51.9667   -1.5352    2.1467 H   0  0  0  0  0  0  0  0  0  0  0  0
   51.8825    1.6479   -2.0359 H   0  0  0  0  0  0  0  0  0  0  0  0
   50.0014    2.9124   -3.4504 H   0  0  0  0  0  0  0  0  0  0  0  0
   48.1025    0.5544   -0.5098 H   0  0  0  0  0  0  0  0  0  0  0  0
   46.1510    2.0967   -4.9446 H   0  0  0  0  0  0  0  0  0  0  0  0
   46.1039    3.7713   -6.7525 H   0  0  0  0  0  0  0  0  0  0  0  0
   46.5118    6.0525   -7.3537 H   0  0  0  0  0  0  0  0  0  0  0  0
   47.4301    7.1019   -6.4019 H   0  0  0  0  0  0  0  0  0  0  0  0
   48.4078    6.4530   -4.3209 H   0  0  0  0  0  0  0  0  0  0  0  0
   48.4413    4.7798   -2.5124 H   0  0  0  0  0  0  0  0  0  0  0  0
   44.6319    3.1324   -3.1284 H   0  0  0  0  0  0  0  0  0  0  0  0
   42.8133    1.7357   -1.7193 H   0  0  0  0  0  0  0  0  0  0  0  0
   91.0953    0.0094   -0.1312 C   0  0  0  0  0  0  0  0  0  0  0  0
   90.4848    0.6664   -1.1920 C   0  0  0  0  0  0  0  0  0  0  0  0
   91.1359    1.2953   -2.2897 C   0  0  0  0  0  0  0  0  0  0  0  0
   90.1739    1.8316   -3.0993 C   0  0  0  0  0  0  0  0  0  0  0  0
   88.9043    1.5564   -2.5168 C   0  0  0  0  0  0  0  0  0  0  0  0
   89.1425    0.8434   -1.3758 N   0  0  0  0  0  0  0  0  0  0  0  0
   87.6415    1.9153   -3.0045 C   0  0  0  0  0  0  0  0  0  0  0  0
   87.6098    2.7279   -4.2432 C   0  0  0  0  0  0  0  0  0  0  0  0
   86.9499    2.2645   -5.3842 C   0  0  0  0  0  0  0  0  0  0  0  0
   86.9190    3.0204   -6.5424 C   0  0  0  0  0  0  0  0  0  0  0  0
   87.5393    4.2718   -6.5801 C   0  0  0  0  0  0  0  0  0  0  0  0
   87.5427    5.0147   -7.7482 N   0  0  0  0  0  0  0  0  0  0  0  0
   88.2070    4.7400   -5.4457 C   0  0  0  0  0  0  0  0  0  0  0  0
   88.2407    3.9735   -4.2943 C   0  0  0  0  0  0  0  0  0  0  0  0
   86.4282    1.5654   -2.4054 C   0  0  0  0  0  0  0  0  0  0  0  0
   85.1303    1.9991   -2.8893 C   0  0  0  0  0  0  0  0  0  0  0  0
   84.2126    1.4609   -2.0590 C   0  0  0  0  0  0  0  0  0  0  0  0
   86.2774    0.7992   -1.2896 N   0  0  0  0  0  0  0  0  0  0  0  0
   84.9514    0.7113   -1.0621 C   0  0  0  0  0  0  0  0  0  0  0  0
   84.3170    0.0097   -0.0164 C   0  0  0  0  0  0  0  0  0  0  0  0
   84.9532   -0.6937    1.0243 C   0  0  0  0  0  0  0  0  0  0  0  0
   84.3080   -1.4312    2.0516 C   0  0  0  0  0  0  0  0  0  0  0  0
   85.2744   -1.9616    2.8612 C   0  0  0  0  0  0  0  0  0  0  0  0
   86.5408   -1.5545    2.3583 C   0  0  0  0  0  0  0  0  0  0  0  0
   86.2944   -0.7979    1.2426 N   0  0  0  0  0  0  0  0  0  0  0  0
   87.8031   -1.8737    2.8725 C   0  0  0  0  0  0  0  0  0  0  0  0
   87.8380   -2.6795    4.1145 C   0  0  0  0  0  0  0  0  0  0  0  0
   88.4902   -3.9151    4.1429 C   0  0  0  0  0  0  0  0  0  0  0  0
   88.5225   -4.6748    5.2985 C   0  0  0  0  0  0  0  0  0  0  0  0
   87.9111   -4.2052    6.4639 C   0  0  0  0  0  0  0  0  0  0  0  0
   87.9072   -4.9800    7.6107 N   0  0  0  0  0  0  0  0  0  0  0  0
   87.2527   -2.9730    6.4432 C   0  0  0  0  0  0  0  0  0  0  0  0
   87.2176   -2.2238    5.2807 C   0  0  0  0  0  0  0  0  0  0  0  0
   89.0177   -1.4872    2.2935 C   0  0  0  0  0  0  0  0  0  0  0  0
   90.3241   -1.7682    2.8675 C   0  0  0  0  0  0  0  0  0  0  0  0
   91.2348   -1.2453    2.0211 C   0  0  0  0  0  0  0  0  0  0  0  0
   90.4858   -0.6326    0.9389 C   0  0  0  0  0  0  0  0  0  0  0  0
   89.1543   -0.7892    1.1412 N   0  0  0  0  0  0  0  0  0  0  0  0
   92.1807    0.0049   -0.1471 H   0  0  0  0  0  0  0  0  0  0  0  0
   92.2044    1.3212   -2.4337 H   0  0  0  0  0  0  0  0  0  0  0  0
   90.3253    2.3621   -4.0254 H   0  0  0  0  0  0  0  0  0  0  0  0
   88.4167    0.4919   -0.7602 H   0  0  0  0  0  0  0  0  0  0  0  0
   86.4742    1.2901   -5.3663 H   0  0  0  0  0  0  0  0  0  0  0  0
   86.4119    2.6452   -7.4247 H   0  0  0  0  0  0  0  0  0  0  0  0
   87.7035    6.0015   -7.6237 H   0  0  0  0  0  0  0  0  0  0  0  0
   86.7948    4.8027   -8.3891 H   0  0  0  0  0  0  0  0  0  0  0  0
   88.6936    5.7090   -5.4696 H   0  0  0  0  0  0  0  0  0  0  0  0
   88.7429    4.3543   -3.4116 H   0  0  0  0  0  0  0  0  0  0  0  0
   84.9643    2.6416   -3.7388 H   0  0  0  0  0  0  0  0  0  0  0  0
   83.1389    1.5569   -2.0904 H   0  0  0  0  0  0  0  0  0  0  0  0
   83.2399   -1.5434    2.1462 H   0  0  0  0  0  0  0  0  0  0  0  0
   85.1253   -2.5911    3.7232 H   0  0  0  0  0  0  0  0  0  0  0  0
   87.0178   -0.3895    0.6598 H   0  0  0  0  0  0  0  0  0  0  0  0
   88.9574   -4.2922    3.2398 H   0  0  0  0  0  0  0  0  0  0  0  0
   89.0224   -5.6373    5.3042 H   0  0  0  0  0  0  0  0  0  0  0  0
   88.6475   -5.6611    7.6671 H   0  0  0  0  0  0  0  0  0  0  0  0
   87.7555   -4.4722    8.4674 H   0  0  0  0  0  0  0  0  0  0  0  0
   86.7733   -2.6045    7.3437 H   0  0  0  0  0  0  0  0  0  0  0  0
   86.7224   -1.2588    5.2800 H   0  0  0  0  0  0  0  0  0  0  0  0
   90.4974   -2.2816    3.7997 H   0  0  0  0  0  0  0  0  0  0  0  0
   92.3108   -1.2482    2.1007 H   0  0  0  0  0  0  0  0  0  0  0  0
   53.4289    0.0469    0.0232 C   0  0  0  0  0  0  0  0  0  0  0  0
   52.2069    0.0229    0.0505 C   0  0  0  0  0  0  0  0  0  0  0  0
   54.7780    0.0646    0.0083 C   0  0  0  0  0  0  0  0  0  0  0  0
   56.0003    0.0839   -0.0130 C   0  0  0  0  0  0  0  0  0  0  0  0
   66.8840    0.0523   -0.0032 C   0  0  0  0  0  0  0  0  0  0  0  0
   65.6610    0.0593   -0.0007 C   0  0  0  0  0  0  0  0  0  0  0  0
   68.2322    0.0457   -0.0010 C   0  0  0  0  0  0  0  0  0  0  0  0
   69.4553    0.0438   -0.0013 C   0  0  0  0  0  0  0  0  0  0  0  0
   80.3393    0.0080    0.0268 C   0  0  0  0  0  0  0  0  0  0  0  0
   79.1168    0.0124    0.0338 C   0  0  0  0  0  0  0  0  0  0  0  0
   81.6886    0.0046    0.0187 C   0  0  0  0  0  0  0  0  0  0  0  0
   82.9109    0.0069    0.0022 C   0  0  0  0  0  0  0  0  0  0  0  0
   57.4054    0.0934   -0.0118 C   0  0  0  0  0  0  0  0  0  0  0  0
   58.0281   -0.2447    1.2058 C   0  0  0  0  0  0  0  0  0  0  0  0
   57.3747   -0.6170    2.4083 C   0  0  0  0  0  0  0  0  0  0  0  0
   58.3345   -0.8246    3.3617 C   0  0  0  0  0  0  0  0  0  0  0  0
   59.6020   -0.5754    2.7697 C   0  0  0  0  0  0  0  0  0  0  0  0
   59.3666   -0.2422    1.4624 N   0  0  0  0  0  0  0  0  0  0  0  0
   60.8573   -0.6584    3.3873 C   0  0  0  0  0  0  0  0  0  0  0  0
   60.8611   -0.9722    4.8356 C   0  0  0  0  0  0  0  0  0  0  0  0
   61.5161   -2.1081    5.3181 C   0  0  0  0  0  0  0  0  0  0  0  0
   61.5157   -2.4073    6.6687 C   0  0  0  0  0  0  0  0  0  0  0  0
   60.8689   -1.5623    7.5743 C   0  0  0  0  0  0  0  0  0  0  0  0
   60.8328   -1.8790    8.9212 N   0  0  0  0  0  0  0  0  0  0  0  0
   60.2083   -0.4263    7.0998 C   0  0  0  0  0  0  0  0  0  0  0  0
   60.2049   -0.1400    5.7463 C   0  0  0  0  0  0  0  0  0  0  0  0
   62.0836   -0.4697    2.7468 C   0  0  0  0  0  0  0  0  0  0  0  0
   63.3654   -0.4970    3.4271 C   0  0  0  0  0  0  0  0  0  0  0  0
   64.3063   -0.2996    2.4797 C   0  0  0  0  0  0  0  0  0  0  0  0
   62.2659   -0.2320    1.4179 N   0  0  0  0  0  0  0  0  0  0  0  0
   63.5970   -0.1391    1.2265 C   0  0  0  0  0  0  0  0  0  0  0  0
   64.2570    0.0698   -0.0020 C   0  0  0  0  0  0  0  0  0  0  0  0
   63.6340    0.2938   -1.2458 C   0  0  0  0  0  0  0  0  0  0  0  0
   64.2868    0.4622   -2.4935 C   0  0  0  0  0  0  0  0  0  0  0  0
   63.3267    0.6788   -3.4448 C   0  0  0  0  0  0  0  0  0  0  0  0
   62.0596    0.6603   -2.8019 C   0  0  0  0  0  0  0  0  0  0  0  0
   62.2958    0.4109   -1.4758 N   0  0  0  0  0  0  0  0  0  0  0  0
   60.8042    0.8504   -3.3946 C   0  0  0  0  0  0  0  0  0  0  0  0
   60.7968    1.1604   -4.8437 C   0  0  0  0  0  0  0  0  0  0  0  0
   61.4624    2.2847   -5.3386 C   0  0  0  0  0  0  0  0  0  0  0  0
   61.4577    2.5742   -6.6916 C   0  0  0  0  0  0  0  0  0  0  0  0
   60.7860    1.7365   -7.5857 C   0  0  0  0  0  0  0  0  0  0  0  0
   60.8217    1.9940   -8.9450 N   0  0  0  0  0  0  0  0  0  0  0  0
   60.1280    0.6033   -7.1004 C   0  0  0  0  0  0  0  0  0  0  0  0
   60.1292    0.3269   -5.7450 C   0  0  0  0  0  0  0  0  0  0  0  0
   59.5785    0.7648   -2.7300 C   0  0  0  0  0  0  0  0  0  0  0  0
   58.2977    1.0412   -3.3547 C   0  0  0  0  0  0  0  0  0  0  0  0
   57.3569    0.8288   -2.4105 C   0  0  0  0  0  0  0  0  0  0  0  0
   58.0650    0.4344   -1.2096 C   0  0  0  0  0  0  0  0  0  0  0  0
   59.3962    0.4206   -1.4252 N   0  0  0  0  0  0  0  0  0  0  0  0
   56.3071   -0.7159    2.5208 H   0  0  0  0  0  0  0  0  0  0  0  0
   58.1791   -1.1346    4.3821 H   0  0  0  0  0  0  0  0  0  0  0  0
   60.0908   -0.0308    0.7841 H   0  0  0  0  0  0  0  0  0  0  0  0
   62.0120   -2.7741    4.6206 H   0  0  0  0  0  0  0  0  0  0  0  0
   62.0177   -3.2984    7.0296 H   0  0  0  0  0  0  0  0  0  0  0  0
   61.5732   -2.4854    9.2360 H   0  0  0  0  0  0  0  0  0  0  0  0
   60.6541   -1.1016    9.5366 H   0  0  0  0  0  0  0  0  0  0  0  0
   59.7019    0.2320    7.7973 H   0  0  0  0  0  0  0  0  0  0  0  0
   59.7061    0.7542    5.3886 H   0  0  0  0  0  0  0  0  0  0  0  0
   63.5055   -0.6327    4.4873 H   0  0  0  0  0  0  0  0  0  0  0  0
   65.3776   -0.2523    2.5942 H   0  0  0  0  0  0  0  0  0  0  0  0
   65.3541    0.4150   -2.6382 H   0  0  0  0  0  0  0  0  0  0  0  0
   63.4821    0.8265   -4.5010 H   0  0  0  0  0  0  0  0  0  0  0  0
   61.5719    0.3173   -0.7713 H   0  0  0  0  0  0  0  0  0  0  0  0
   61.9700    2.9512   -4.6497 H   0  0  0  0  0  0  0  0  0  0  0  0
   61.9721    3.4541   -7.0623 H   0  0  0  0  0  0  0  0  0  0  0  0
   60.0764    1.5746   -9.4776 H   0  0  0  0  0  0  0  0  0  0  0  0
   61.0094    2.9523   -9.1923 H   0  0  0  0  0  0  0  0  0  0  0  0
   59.6165   -0.0581   -7.7911 H   0  0  0  0  0  0  0  0  0  0  0  0
   59.6247   -0.5600   -5.3775 H   0  0  0  0  0  0  0  0  0  0  0  0
   58.1587    1.3690   -4.3723 H   0  0  0  0  0  0  0  0  0  0  0  0
   56.2863    0.9308   -2.4911 H   0  0  0  0  0  0  0  0  0  0  0  0
   70.8594    0.0428    0.0048 C   0  0  0  0  0  0  0  0  0  0  0  0
   71.4787   -0.2599    1.2337 C   0  0  0  0  0  0  0  0  0  0  0  0
   70.8210   -0.5962    2.4443 C   0  0  0  0  0  0  0  0  0  0  0  0
   71.7787   -0.8012    3.4005 C   0  0  0  0  0  0  0  0  0  0  0  0
   73.0494   -0.5859    2.8021 C   0  0  0  0  0  0  0  0  0  0  0  0
   72.8173   -0.2718    1.4892 N   0  0  0  0  0  0  0  0  0  0  0  0
   74.3043   -0.6890    3.4169 C   0  0  0  0  0  0  0  0  0  0  0  0
   74.3069   -0.9938    4.8675 C   0  0  0  0  0  0  0  0  0  0  0  0
   74.9359   -2.1428    5.3535 C   0  0  0  0  0  0  0  0  0  0  0  0
   74.9376   -2.4325    6.7062 C   0  0  0  0  0  0  0  0  0  0  0  0
   74.3194   -1.5647    7.6102 C   0  0  0  0  0  0  0  0  0  0  0  0
   74.2861   -1.8703    8.9598 N   0  0  0  0  0  0  0  0  0  0  0  0
   73.6839   -0.4159    7.1320 C   0  0  0  0  0  0  0  0  0  0  0  0
   73.6782   -0.1390    5.7764 C   0  0  0  0  0  0  0  0  0  0  0  0
   75.5330   -0.5267    2.7732 C   0  0  0  0  0  0  0  0  0  0  0  0
   76.8152   -0.5782    3.4518 C   0  0  0  0  0  0  0  0  0  0  0  0
   77.7578   -0.3877    2.5050 C   0  0  0  0  0  0  0  0  0  0  0  0
   75.7173   -0.2850    1.4457 N   0  0  0  0  0  0  0  0  0  0  0  0
   77.0498   -0.2065    1.2539 C   0  0  0  0  0  0  0  0  0  0  0  0
   77.7115    0.0213    0.0305 C   0  0  0  0  0  0  0  0  0  0  0  0
   77.0927    0.2633   -1.2115 C   0  0  0  0  0  0  0  0  0  0  0  0
   77.7505    0.4558   -2.4533 C   0  0  0  0  0  0  0  0  0  0  0  0
   76.7930    0.6645   -3.4088 C   0  0  0  0  0  0  0  0  0  0  0  0
   75.5223    0.6160   -2.7746 C   0  0  0  0  0  0  0  0  0  0  0  0
   75.7542    0.3615   -1.4489 N   0  0  0  0  0  0  0  0  0  0  0  0
   74.2673    0.7765   -3.3767 C   0  0  0  0  0  0  0  0  0  0  0  0
   74.2629    1.0849   -4.8265 C   0  0  0  0  0  0  0  0  0  0  0  0
   74.8943    2.2314   -5.3152 C   0  0  0  0  0  0  0  0  0  0  0  0
   74.8871    2.5239   -6.6676 C   0  0  0  0  0  0  0  0  0  0  0  0
   74.2474    1.6670   -7.5669 C   0  0  0  0  0  0  0  0  0  0  0  0
   74.2794    1.9305   -8.9254 N   0  0  0  0  0  0  0  0  0  0  0  0
   73.6262    0.5107   -7.0879 C   0  0  0  0  0  0  0  0  0  0  0  0
   73.6294    0.2311   -5.7331 C   0  0  0  0  0  0  0  0  0  0  0  0
   73.0390    0.6672   -2.7213 C   0  0  0  0  0  0  0  0  0  0  0  0
   71.7576    0.9072   -3.3595 C   0  0  0  0  0  0  0  0  0  0  0  0
   70.8148    0.6988   -2.4165 C   0  0  0  0  0  0  0  0  0  0  0  0
   71.5222    0.3436   -1.2029 C   0  0  0  0  0  0  0  0  0  0  0  0
   72.8541    0.3431   -1.4112 N   0  0  0  0  0  0  0  0  0  0  0  0
   69.7521   -0.6758    2.5595 H   0  0  0  0  0  0  0  0  0  0  0  0
   71.6196   -1.0884    4.4270 H   0  0  0  0  0  0  0  0  0  0  0  0
   73.5440   -0.0855    0.8062 H   0  0  0  0  0  0  0  0  0  0  0  0
   75.4100   -2.8260    4.6574 H   0  0  0  0  0  0  0  0  0  0  0  0
   75.4197   -3.3333    7.0700 H   0  0  0  0  0  0  0  0  0  0  0  0
   75.0139   -2.4926    9.2731 H   0  0  0  0  0  0  0  0  0  0  0  0
   74.1330   -1.0836    9.5704 H   0  0  0  0  0  0  0  0  0  0  0  0
   73.1993    0.2599    7.8282 H   0  0  0  0  0  0  0  0  0  0  0  0
   73.1997    0.7650    5.4158 H   0  0  0  0  0  0  0  0  0  0  0  0
   76.9546   -0.7238    4.5108 H   0  0  0  0  0  0  0  0  0  0  0  0
   78.8298   -0.3566    2.6186 H   0  0  0  0  0  0  0  0  0  0  0  0
   78.8193    0.4287   -2.5915 H   0  0  0  0  0  0  0  0  0  0  0  0
   76.9523    0.8255   -4.4624 H   0  0  0  0  0  0  0  0  0  0  0  0
   75.0273    0.2498   -0.7500 H   0  0  0  0  0  0  0  0  0  0  0  0
   75.3760    2.9124   -4.6220 H   0  0  0  0  0  0  0  0  0  0  0  0
   75.3739    3.4213   -7.0336 H   0  0  0  0  0  0  0  0  0  0  0  0
   73.5496    1.4889   -9.4616 H   0  0  0  0  0  0  0  0  0  0  0  0
   74.4353    2.8958   -9.1682 H   0  0  0  0  0  0  0  0  0  0  0  0
   73.1406   -0.1657   -7.7827 H   0  0  0  0  0  0  0  0  0  0  0  0
   73.1528   -0.6728   -5.3701 H   0  0  0  0  0  0  0  0  0  0  0  0
   71.6190    1.2104   -4.3846 H   0  0  0  0  0  0  0  0  0  0  0  0
   69.7433    0.7809   -2.5060 H   0  0  0  0  0  0  0  0  0  0  0  0
  1  2  4  0  0  0  0
  2  3  4  0  0  0  0
  3  4  2  0  0  0  0
  4  5  4  0  0  0  0
  2  6  4  0  0  0  0
  5  6  4  0  0  0  0
  5  7  4  0  0  0  0
  7  8  1  0  0  0  0
  8  9  4  0  0  0  0
  9 10  4  0  0  0  0
 10 11  4  0  0  0  0
 11 12  1  0  0  0  0
 11 13  4  0  0  0  0
  8 14  4  0  0  0  0
 13 14  4  0  0  0  0
  7 15  4  0  0  0  0
 15 16  1  0  0  0  0
 16 17  2  0  0  0  0
 15 18  4  0  0  0  0
 17 19  1  0  0  0  0
 18 19  4  0  0  0  0
 19 20  4  0  0  0  0
 20 21  4  0  0  0  0
 21 22  4  0  0  0  0
 22 23  2  0  0  0  0
 23 24  4  0  0  0  0
 21 25  4  0  0  0  0
 24 25  4  0  0  0  0
 24 26  4  0  0  0  0
 26 27  1  0  0  0  0
 27 28  4  0  0  0  0
 28 29  4  0  0  0  0
 29 30  4  0  0  0  0
 30 31  1  0  0  0  0
 30 32  4  0  0  0  0
 27 33  4  0  0  0  0
 32 33  4  0  0  0  0
 26 34  4  0  0  0  0
 34 35  1  0  0  0  0
 35 36  2  0  0  0  0
  1 37  4  0  0  0  0
 36 37  1  0  0  0  0
 34 38  4  0  0  0  0
 37 38  4  0  0  0  0
  1 39  1  0  0  0  0
  3 40  1  0  0  0  0
  4 41  1  0  0  0  0
  6 42  1  0  0  0  0
  9 43  1  0  0  0  0
 10 44  1  0  0  0  0
 12 45  1  0  0  0  0
 12 46  1  0  0  0  0
 13 47  1  0  0  0  0
 14 48  1  0  0  0  0
 16 49  1  0  0  0  0
 17 50  1  0  0  0  0
 22 51  1  0  0  0  0
 23 52  1  0  0  0  0
 25 53  1  0  0  0  0
 28 54  1  0  0  0  0
 29 55  1  0  0  0  0
 31 56  1  0  0  0  0
 31 57  1  0  0  0  0
 32 58  1  0  0  0  0
 33 59  1  0  0  0  0
 35 60  1  0  0  0  0
 36 61  1  0  0  0  0
 62 63  4  0  0  0  0
 63 64  4  0  0  0  0
 64 65  2  0  0  0  0
 65 66  4  0  0  0  0
 63 67  4  0  0  0  0
 66 67  4  0  0  0  0
 66 68  4  0  0  0  0
 68 69  1  0  0  0  0
 69 70  4  0  0  0  0
 70 71  4  0  0  0  0
 71 72  4  0  0  0  0
 72 73  1  0  0  0  0
 72 74  4  0  0  0  0
 69 75  4  0  0  0  0
 74 75  4  0  0  0  0
 68 76  4  0  0  0  0
 76 77  1  0  0  0  0
 77 78  2  0  0  0  0
 76 79  4  0  0  0  0
 78 80  1  0  0  0  0
 79 80  4  0  0  0  0
 80 81  4  0  0  0  0
 81 82  4  0  0  0  0
 82 83  4  0  0  0  0
 83 84  2  0  0  0  0
 84 85  4  0  0  0  0
 82 86  4  0  0  0  0
 85 86  4  0  0  0  0
 85 87  4  0  0  0  0
 87 88  1  0  0  0  0
 88 89  4  0  0  0  0
 89 90  4  0  0  0  0
 90 91  4  0  0  0  0
 91 92  1  0  0  0  0
 91 93  4  0  0  0  0
 88 94  4  0  0  0  0
 93 94  4  0  0  0  0
 87 95  4  0  0  0  0
 95 96  1  0  0  0  0
 96 97  2  0  0  0  0
 62 98  4  0  0  0  0
 97 98  1  0  0  0  0
 95 99  4  0  0  0  0
 98 99  4  0  0  0  0
 62100  1  0  0  0  0
 64101  1  0  0  0  0
 65102  1  0  0  0  0
 67103  1  0  0  0  0
 70104  1  0  0  0  0
 71105  1  0  0  0  0
 73106  1  0  0  0  0
 73107  1  0  0  0  0
 74108  1  0  0  0  0
 75109  1  0  0  0  0
 77110  1  0  0  0  0
 78111  1  0  0  0  0
 83112  1  0  0  0  0
 84113  1  0  0  0  0
 86114  1  0  0  0  0
 89115  1  0  0  0  0
 90116  1  0  0  0  0
 92117  1  0  0  0  0
 92118  1  0  0  0  0
 93119  1  0  0  0  0
 94120  1  0  0  0  0
 96121  1  0  0  0  0
 97122  1  0  0  0  0
 20124  4  0  0  0  0
123124  3  0  0  0  0
123125  4  0  0  0  0
125126  3  0  0  0  0
127128  3  0  0  0  0
127129  4  0  0  0  0
129130  3  0  0  0  0
131132  3  0  0  0  0
131133  4  0  0  0  0
 81134  4  0  0  0  0
133134  3  0  0  0  0
126135  4  0  0  0  0
135136  4  0  0  0  0
136137  4  0  0  0  0
137138  2  0  0  0  0
138139  4  0  0  0  0
136140  4  0  0  0  0
139140  4  0  0  0  0
139141  4  0  0  0  0
141142  1  0  0  0  0
142143  4  0  0  0  0
143144  4  0  0  0  0
144145  4  0  0  0  0
145146  1  0  0  0  0
145147  4  0  0  0  0
142148  4  0  0  0  0
147148  4  0  0  0  0
141149  4  0  0  0  0
149150  1  0  0  0  0
150151  2  0  0  0  0
149152  4  0  0  0  0
151153  1  0  0  0  0
152153  4  0  0  0  0
128154  4  0  0  0  0
153154  4  0  0  0  0
154155  4  0  0  0  0
155156  4  0  0  0  0
156157  2  0  0  0  0
157158  4  0  0  0  0
155159  4  0  0  0  0
158159  4  0  0  0  0
158160  4  0  0  0  0
160161  1  0  0  0  0
161162  4  0  0  0  0
162163  4  0  0  0  0
163164  4  0  0  0  0
164165  1  0  0  0  0
164166  4  0  0  0  0
161167  4  0  0  0  0
166167  4  0  0  0  0
160168  4  0  0  0  0
168169  1  0  0  0  0
169170  2  0  0  0  0
135171  4  0  0  0  0
170171  1  0  0  0  0
168172  4  0  0  0  0
171172  4  0  0  0  0
137173  1  0  0  0  0
138174  1  0  0  0  0
140175  1  0  0  0  0
143176  1  0  0  0  0
144177  1  0  0  0  0
146178  1  0  0  0  0
146179  1  0  0  0  0
147180  1  0  0  0  0
148181  1  0  0  0  0
150182  1  0  0  0  0
151183  1  0  0  0  0
156184  1  0  0  0  0
157185  1  0  0  0  0
159186  1  0  0  0  0
162187  1  0  0  0  0
163188  1  0  0  0  0
165189  1  0  0  0  0
165190  1  0  0  0  0
166191  1  0  0  0  0
167192  1  0  0  0  0
169193  1  0  0  0  0
170194  1  0  0  0  0
130195  4  0  0  0  0
195196  4  0  0  0  0
196197  4  0  0  0  0
197198  2  0  0  0  0
198199  4  0  0  0  0
196200  4  0  0  0  0
199200  4  0  0  0  0
199201  4  0  0  0  0
201202  1  0  0  0  0
202203  4  0  0  0  0
203204  4  0  0  0  0
204205  4  0  0  0  0
205206  1  0  0  0  0
205207  4  0  0  0  0
202208  4  0  0  0  0
207208  4  0  0  0  0
201209  4  0  0  0  0
209210  1  0  0  0  0
210211  2  0  0  0  0
209212  4  0  0  0  0
211213  1  0  0  0  0
212213  4  0  0  0  0
132214  4  0  0  0  0
213214  4  0  0  0  0
214215  4  0  0  0  0
215216  4  0  0  0  0
216217  2  0  0  0  0
217218  4  0  0  0  0
215219  4  0  0  0  0
218219  4  0  0  0  0
218220  4  0  0  0  0
220221  1  0  0  0  0
221222  4  0  0  0  0
222223  4  0  0  0  0
223224  4  0  0  0  0
224225  1  0  0  0  0
224226  4  0  0  0  0
221227  4  0  0  0  0
226227  4  0  0  0  0
220228  4  0  0  0  0
228229  1  0  0  0  0
229230  2  0  0  0  0
195231  4  0  0  0  0
230231  1  0  0  0  0
228232  4  0  0  0  0
231232  4  0  0  0  0
197233  1  0  0  0  0
198234  1  0  0  0  0
200235  1  0  0  0  0
203236  1  0  0  0  0
204237  1  0  0  0  0
206238  1  0  0  0  0
206239  1  0  0  0  0
207240  1  0  0  0  0
208241  1  0  0  0  0
210242  1  0  0  0  0
211243  1  0  0  0  0
216244  1  0  0  0  0
217245  1  0  0  0  0
219246  1  0  0  0  0
222247  1  0  0  0  0
223248  1  0  0  0  0
225249  1  0  0  0  0
225250  1  0  0  0  0
226251  1  0  0  0  0
227252  1  0  0  0  0
229253  1  0  0  0  0
230254  1  0  0  0  0
M  END
