 xtb: 6.5.1 (b24c23e)
          07302200353D

124143  0     0  0            999 V2000
   13.6267    0.0561   -0.0107 Co  0  0  0  0  0  0  0  0  0  0  0  0
   10.2417    0.1154   -0.0106 C   0  0  0  0  0  0  0  0  0  0  0  0
   10.9052    0.7825    0.9961 C   0  0  0  0  0  0  0  0  0  0  0  0
   10.2471    1.4983    2.0465 C   0  0  0  0  0  0  0  0  0  0  0  0
   11.2139    2.1517    2.7340 C   0  0  0  0  0  0  0  0  0  0  0  0
   12.4556    1.8336    2.0979 C   0  0  0  0  0  0  0  0  0  0  0  0
   12.2665    0.9575    1.0666 N   0  0  0  0  0  0  0  0  0  0  0  0
   13.6648    2.4521    2.4156 C   0  0  0  0  0  0  0  0  0  0  0  0
   13.6847    3.4511    3.4123 C   0  0  0  0  0  0  0  0  0  0  0  0
   13.7132    4.3114    4.2674 C   0  0  0  0  0  0  0  0  0  0  0  0
   13.7548    5.3161    5.2613 C   0  0  0  0  0  0  0  0  0  0  0  0
   14.9561    5.9529    5.5944 C   0  0  0  0  0  0  0  0  0  0  0  0
   14.9469    6.9314    6.5724 C   0  0  0  0  0  0  0  0  0  0  0  0
   13.8449    7.3028    7.2190 N   0  0  0  0  0  0  0  0  0  0  0  0
   12.6989    6.7026    6.9076 C   0  0  0  0  0  0  0  0  0  0  0  0
   12.6003    5.7129    5.9457 C   0  0  0  0  0  0  0  0  0  0  0  0
   14.8551    2.1244    1.7696 C   0  0  0  0  0  0  0  0  0  0  0  0
   16.1039    2.7613    2.0459 C   0  0  0  0  0  0  0  0  0  0  0  0
   17.0489    2.0773    1.3556 C   0  0  0  0  0  0  0  0  0  0  0  0
   15.0209    1.0872    0.8878 N   0  0  0  0  0  0  0  0  0  0  0  0
   16.3696    1.0270    0.6657 C   0  0  0  0  0  0  0  0  0  0  0  0
   17.0319    0.0053   -0.0202 C   0  0  0  0  0  0  0  0  0  0  0  0
   16.3398   -1.0066   -0.6904 C   0  0  0  0  0  0  0  0  0  0  0  0
   16.9867   -2.0787   -1.3779 C   0  0  0  0  0  0  0  0  0  0  0  0
   16.0162   -2.7567   -2.0380 C   0  0  0  0  0  0  0  0  0  0  0  0
   14.7849   -2.0910   -1.7501 C   0  0  0  0  0  0  0  0  0  0  0  0
   14.9860   -1.0464   -0.8842 N   0  0  0  0  0  0  0  0  0  0  0  0
   13.5806   -2.3964   -2.3799 C   0  0  0  0  0  0  0  0  0  0  0  0
   13.5580   -3.4132   -3.3585 C   0  0  0  0  0  0  0  0  0  0  0  0
   13.5373   -4.2885   -4.1985 C   0  0  0  0  0  0  0  0  0  0  0  0
   13.5120   -5.3075   -5.1783 C   0  0  0  0  0  0  0  0  0  0  0  0
   14.6742   -6.0019   -5.5337 C   0  0  0  0  0  0  0  0  0  0  0  0
   14.5950   -6.9910   -6.4979 C   0  0  0  0  0  0  0  0  0  0  0  0
   13.4608   -7.3200   -7.1108 N   0  0  0  0  0  0  0  0  0  0  0  0
   12.3515   -6.6648   -6.7781 C   0  0  0  0  0  0  0  0  0  0  0  0
   12.3232   -5.6598   -5.8277 C   0  0  0  0  0  0  0  0  0  0  0  0
   12.3949   -1.7265   -2.0760 C   0  0  0  0  0  0  0  0  0  0  0  0
   11.1460   -1.9966   -2.7199 C   0  0  0  0  0  0  0  0  0  0  0  0
   10.2044   -1.2857   -2.0546 C   0  0  0  0  0  0  0  0  0  0  0  0
   10.8844   -0.5871   -1.0067 C   0  0  0  0  0  0  0  0  0  0  0  0
   12.2361   -0.8301   -1.0575 N   0  0  0  0  0  0  0  0  0  0  0  0
    9.1583    0.1409   -0.0168 H   0  0  0  0  0  0  0  0  0  0  0  0
    9.1814    1.4978    2.2110 H   0  0  0  0  0  0  0  0  0  0  0  0
   11.1145    2.8055    3.5857 H   0  0  0  0  0  0  0  0  0  0  0  0
   15.8765    5.6809    5.0921 H   0  0  0  0  0  0  0  0  0  0  0  0
   15.8645    7.4413    6.8516 H   0  0  0  0  0  0  0  0  0  0  0  0
   11.8195    7.0302    7.4545 H   0  0  0  0  0  0  0  0  0  0  0  0
   11.6463    5.2504    5.7233 H   0  0  0  0  0  0  0  0  0  0  0  0
   16.2262    3.6131    2.6953 H   0  0  0  0  0  0  0  0  0  0  0  0
   18.1129    2.2464    1.3175 H   0  0  0  0  0  0  0  0  0  0  0  0
   18.0482   -2.2661   -1.3579 H   0  0  0  0  0  0  0  0  0  0  0  0
   16.1102   -3.6197   -2.6773 H   0  0  0  0  0  0  0  0  0  0  0  0
   15.6190   -5.7658   -5.0592 H   0  0  0  0  0  0  0  0  0  0  0  0
   15.4809   -7.5454   -6.7938 H   0  0  0  0  0  0  0  0  0  0  0  0
   11.4441   -6.9587   -7.2978 H   0  0  0  0  0  0  0  0  0  0  0  0
   11.3973   -5.1515   -5.5869 H   0  0  0  0  0  0  0  0  0  0  0  0
   11.0243   -2.6576   -3.5630 H   0  0  0  0  0  0  0  0  0  0  0  0
    9.1419   -1.2363   -2.2321 H   0  0  0  0  0  0  0  0  0  0  0  0
   32.1725   -0.0228   -0.0554 Co  0  0  0  0  0  0  0  0  0  0  0  0
   35.5577   -0.0530   -0.1060 C   0  0  0  0  0  0  0  0  0  0  0  0
   34.8945   -1.2595   -0.1618 C   0  0  0  0  0  0  0  0  0  0  0  0
   35.5528   -2.5282   -0.2371 C   0  0  0  0  0  0  0  0  0  0  0  0
   34.5862   -3.4541   -0.4438 C   0  0  0  0  0  0  0  0  0  0  0  0
   33.3443   -2.7452   -0.4969 C   0  0  0  0  0  0  0  0  0  0  0  0
   33.5331   -1.4103   -0.2748 N   0  0  0  0  0  0  0  0  0  0  0  0
   32.1350   -3.3357   -0.8637 C   0  0  0  0  0  0  0  0  0  0  0  0
   32.1154   -4.7042   -1.2080 C   0  0  0  0  0  0  0  0  0  0  0  0
   32.0862   -5.8795   -1.5083 C   0  0  0  0  0  0  0  0  0  0  0  0
   32.0451   -7.2476   -1.8625 C   0  0  0  0  0  0  0  0  0  0  0  0
   30.8440   -7.8607   -2.2383 C   0  0  0  0  0  0  0  0  0  0  0  0
   30.8539   -9.2017   -2.5779 C   0  0  0  0  0  0  0  0  0  0  0  0
   31.9565   -9.9466   -2.5662 N   0  0  0  0  0  0  0  0  0  0  0  0
   33.1021   -9.3712   -2.2100 C   0  0  0  0  0  0  0  0  0  0  0  0
   33.1999   -8.0382   -1.8524 C   0  0  0  0  0  0  0  0  0  0  0  0
   30.9447   -2.6134   -0.9142 C   0  0  0  0  0  0  0  0  0  0  0  0
   29.6960   -3.1781   -1.3185 C   0  0  0  0  0  0  0  0  0  0  0  0
   28.7510   -2.2341   -1.0878 C   0  0  0  0  0  0  0  0  0  0  0  0
   30.7787   -1.3238   -0.4781 N   0  0  0  0  0  0  0  0  0  0  0  0
   29.4300   -1.1023   -0.5416 C   0  0  0  0  0  0  0  0  0  0  0  0
   28.7672    0.0115   -0.0188 C   0  0  0  0  0  0  0  0  0  0  0  0
   29.4587    1.1069    0.5046 C   0  0  0  0  0  0  0  0  0  0  0  0
   28.8112    2.2480    1.0696 C   0  0  0  0  0  0  0  0  0  0  0  0
   29.7817    3.1623    1.3137 C   0  0  0  0  0  0  0  0  0  0  0  0
   31.0135    2.5727    0.8927 C   0  0  0  0  0  0  0  0  0  0  0  0
   30.8127    1.2932    0.4410 N   0  0  0  0  0  0  0  0  0  0  0  0
   32.2182    3.2695    0.8333 C   0  0  0  0  0  0  0  0  0  0  0  0
   32.2405    4.6312    1.2034 C   0  0  0  0  0  0  0  0  0  0  0  0
   32.2612    5.8015    1.5234 C   0  0  0  0  0  0  0  0  0  0  0  0
   32.2855    7.1653    1.8952 C   0  0  0  0  0  0  0  0  0  0  0  0
   31.1225    7.8260    2.3078 C   0  0  0  0  0  0  0  0  0  0  0  0
   31.2004    9.1613    2.6613 C   0  0  0  0  0  0  0  0  0  0  0  0
   32.3340    9.8571    2.6295 N   0  0  0  0  0  0  0  0  0  0  0  0
   33.4440    9.2361    2.2388 C   0  0  0  0  0  0  0  0  0  0  0  0
   33.4737    7.9045    1.8646 C   0  0  0  0  0  0  0  0  0  0  0  0
   33.4041    2.6645    0.4155 C   0  0  0  0  0  0  0  0  0  0  0  0
   34.6530    3.3559    0.3174 C   0  0  0  0  0  0  0  0  0  0  0  0
   35.5947    2.4202    0.0485 C   0  0  0  0  0  0  0  0  0  0  0  0
   34.9148    1.1623   -0.0138 C   0  0  0  0  0  0  0  0  0  0  0  0
   33.5630    1.3305    0.1686 N   0  0  0  0  0  0  0  0  0  0  0  0
   36.6411   -0.0605   -0.1314 H   0  0  0  0  0  0  0  0  0  0  0  0
   36.6187   -2.6688   -0.1530 H   0  0  0  0  0  0  0  0  0  0  0  0
   34.6858   -4.5206   -0.5675 H   0  0  0  0  0  0  0  0  0  0  0  0
   29.9232   -7.2905   -2.2616 H   0  0  0  0  0  0  0  0  0  0  0  0
   29.9368   -9.7031   -2.8734 H   0  0  0  0  0  0  0  0  0  0  0  0
   33.9820  -10.0081   -2.2119 H   0  0  0  0  0  0  0  0  0  0  0  0
   34.1537   -7.6098   -1.5690 H   0  0  0  0  0  0  0  0  0  0  0  0
   29.5740   -4.1732   -1.7150 H   0  0  0  0  0  0  0  0  0  0  0  0
   27.6871   -2.2883   -1.2530 H   0  0  0  0  0  0  0  0  0  0  0  0
   27.7495    2.3275    1.2388 H   0  0  0  0  0  0  0  0  0  0  0  0
   29.6873    4.1543    1.7252 H   0  0  0  0  0  0  0  0  0  0  0  0
   30.1781    7.2968    2.3483 H   0  0  0  0  0  0  0  0  0  0  0  0
   30.3139    9.6992    2.9847 H   0  0  0  0  0  0  0  0  0  0  0  0
   34.3510    9.8337    2.2247 H   0  0  0  0  0  0  0  0  0  0  0  0
   34.4001    7.4377    1.5526 H   0  0  0  0  0  0  0  0  0  0  0  0
   34.7747    4.4187    0.4525 H   0  0  0  0  0  0  0  0  0  0  0  0
   36.6572    2.5472   -0.0848 H   0  0  0  0  0  0  0  0  0  0  0  0
   18.4338   -0.0051   -0.0291 C   0  0  0  0  0  0  0  0  0  0  0  0
   19.6590   -0.0060   -0.0299 C   0  0  0  0  0  0  0  0  0  0  0  0
   21.0000   -0.0034   -0.0288 C   0  0  0  0  0  0  0  0  0  0  0  0
   22.2316    0.0054   -0.0248 C   0  0  0  0  0  0  0  0  0  0  0  0
   23.5676    0.0143   -0.0210 C   0  0  0  0  0  0  0  0  0  0  0  0
   24.7991    0.0231   -0.0166 C   0  0  0  0  0  0  0  0  0  0  0  0
   26.1401    0.0254   -0.0155 C   0  0  0  0  0  0  0  0  0  0  0  0
   27.3654    0.0242   -0.0152 C   0  0  0  0  0  0  0  0  0  0  0  0
  2  3  4  0  0  0  0
  3  4  1  0  0  0  0
  4  5  2  0  0  0  0
  5  6  4  0  0  0  0
  1  7  1  0  0  0  0
  3  7  4  0  0  0  0
  6  7  4  0  0  0  0
  6  8  4  0  0  0  0
  8  9  1  0  0  0  0
  9 10  3  0  0  0  0
 10 11  1  0  0  0  0
 11 12  4  0  0  0  0
 12 13  4  0  0  0  0
 13 14  4  0  0  0  0
 14 15  4  0  0  0  0
 11 16  4  0  0  0  0
 15 16  4  0  0  0  0
  8 17  4  0  0  0  0
 17 18  4  0  0  0  0
 18 19  2  0  0  0  0
  1 20  1  0  0  0  0
 17 20  4  0  0  0  0
 19 21  4  0  0  0  0
 20 21  4  0  0  0  0
 21 22  4  0  0  0  0
 22 23  4  0  0  0  0
 23 24  4  0  0  0  0
 24 25  2  0  0  0  0
 25 26  4  0  0  0  0
  1 27  1  0  0  0  0
 23 27  4  0  0  0  0
 26 27  4  0  0  0  0
 26 28  4  0  0  0  0
 28 29  1  0  0  0  0
 29 30  3  0  0  0  0
 30 31  1  0  0  0  0
 31 32  4  0  0  0  0
 32 33  4  0  0  0  0
 33 34  4  0  0  0  0
 34 35  4  0  0  0  0
 31 36  4  0  0  0  0
 35 36  4  0  0  0  0
 28 37  4  0  0  0  0
 37 38  4  0  0  0  0
 38 39  2  0  0  0  0
  2 40  4  0  0  0  0
 39 40  1  0  0  0  0
  1 41  1  0  0  0  0
 37 41  4  0  0  0  0
 40 41  4  0  0  0  0
  2 42  1  0  0  0  0
  4 43  1  0  0  0  0
  5 44  1  0  0  0  0
 12 45  1  0  0  0  0
 13 46  1  0  0  0  0
 15 47  1  0  0  0  0
 16 48  1  0  0  0  0
 18 49  1  0  0  0  0
 19 50  1  0  0  0  0
 24 51  1  0  0  0  0
 25 52  1  0  0  0  0
 32 53  1  0  0  0  0
 33 54  1  0  0  0  0
 35 55  1  0  0  0  0
 36 56  1  0  0  0  0
 38 57  1  0  0  0  0
 39 58  1  0  0  0  0
 60 61  4  0  0  0  0
 61 62  1  0  0  0  0
 62 63  2  0  0  0  0
 63 64  4  0  0  0  0
 59 65  1  0  0  0  0
 61 65  4  0  0  0  0
 64 65  4  0  0  0  0
 64 66  4  0  0  0  0
 66 67  1  0  0  0  0
 67 68  3  0  0  0  0
 68 69  1  0  0  0  0
 69 70  4  0  0  0  0
 70 71  4  0  0  0  0
 71 72  4  0  0  0  0
 72 73  4  0  0  0  0
 69 74  4  0  0  0  0
 73 74  4  0  0  0  0
 66 75  4  0  0  0  0
 75 76  4  0  0  0  0
 76 77  2  0  0  0  0
 59 78  1  0  0  0  0
 75 78  4  0  0  0  0
 77 79  4  0  0  0  0
 78 79  4  0  0  0  0
 79 80  4  0  0  0  0
 80 81  4  0  0  0  0
 81 82  4  0  0  0  0
 82 83  2  0  0  0  0
 83 84  4  0  0  0  0
 59 85  1  0  0  0  0
 81 85  4  0  0  0  0
 84 85  4  0  0  0  0
 84 86  4  0  0  0  0
 86 87  1  0  0  0  0
 87 88  3  0  0  0  0
 88 89  1  0  0  0  0
 89 90  4  0  0  0  0
 90 91  4  0  0  0  0
 91 92  4  0  0  0  0
 92 93  4  0  0  0  0
 89 94  4  0  0  0  0
 93 94  4  0  0  0  0
 86 95  4  0  0  0  0
 95 96  4  0  0  0  0
 96 97  2  0  0  0  0
 60 98  4  0  0  0  0
 97 98  1  0  0  0  0
 59 99  1  0  0  0  0
 95 99  4  0  0  0  0
 98 99  4  0  0  0  0
 60100  1  0  0  0  0
 62101  1  0  0  0  0
 63102  1  0  0  0  0
 70103  1  0  0  0  0
 71104  1  0  0  0  0
 73105  1  0  0  0  0
 74106  1  0  0  0  0
 76107  1  0  0  0  0
 77108  1  0  0  0  0
 82109  1  0  0  0  0
 83110  1  0  0  0  0
 90111  1  0  0  0  0
 91112  1  0  0  0  0
 93113  1  0  0  0  0
 94114  1  0  0  0  0
 96115  1  0  0  0  0
 97116  1  0  0  0  0
 22117  4  0  0  0  0
117118  3  0  0  0  0
118119  4  0  0  0  0
119120  3  0  0  0  0
120121  4  0  0  0  0
121122  3  0  0  0  0
122123  4  0  0  0  0
 80124  4  0  0  0  0
123124  3  0  0  0  0
M  END
