 xtb: 6.5.1 (b24c23e)
          07292220333D

242281  0     0  0            999 V2000
   46.7577   -0.0332   -0.0986 Fe  0  0  0  0  0  0  0  0  0  0  0  0
   43.3856   -0.0545   -0.3684 C   0  0  0  0  0  0  0  0  0  0  0  0
   44.0212   -1.2584   -0.1404 C   0  0  0  0  0  0  0  0  0  0  0  0
   43.3342   -2.5000    0.0484 C   0  0  0  0  0  0  0  0  0  0  0  0
   44.2862   -3.4544    0.1803 C   0  0  0  0  0  0  0  0  0  0  0  0
   45.5541   -2.7980    0.0412 C   0  0  0  0  0  0  0  0  0  0  0  0
   45.3773   -1.4480   -0.1023 N   0  0  0  0  0  0  0  0  0  0  0  0
   46.7756   -3.4610   -0.0318 C   0  0  0  0  0  0  0  0  0  0  0  0
   46.7929   -4.9407    0.0248 C   0  0  0  0  0  0  0  0  0  0  0  0
   46.0978   -5.7009   -0.9165 C   0  0  0  0  0  0  0  0  0  0  0  0
   46.1189   -7.0859   -0.8637 C   0  0  0  0  0  0  0  0  0  0  0  0
   46.8352   -7.7288    0.1433 C   0  0  0  0  0  0  0  0  0  0  0  0
   46.8790   -9.0828    0.2345 O   0  0  0  0  0  0  0  0  0  0  0  0
   47.5333   -6.9816    1.0905 C   0  0  0  0  0  0  0  0  0  0  0  0
   47.5132   -5.6000    1.0247 C   0  0  0  0  0  0  0  0  0  0  0  0
   47.9825   -2.7896   -0.1798 C   0  0  0  0  0  0  0  0  0  0  0  0
   49.2425   -3.4387   -0.3888 C   0  0  0  0  0  0  0  0  0  0  0  0
   50.1854   -2.4655   -0.4129 C   0  0  0  0  0  0  0  0  0  0  0  0
   48.1548   -1.4279   -0.1180 N   0  0  0  0  0  0  0  0  0  0  0  0
   49.4999   -1.2269   -0.2151 C   0  0  0  0  0  0  0  0  0  0  0  0
   50.1569   -0.0062   -0.0178 C   0  0  0  0  0  0  0  0  0  0  0  0
   49.4751    1.1967    0.2055 C   0  0  0  0  0  0  0  0  0  0  0  0
   50.1361    2.4374    0.4647 C   0  0  0  0  0  0  0  0  0  0  0  0
   49.1732    3.3897    0.5018 C   0  0  0  0  0  0  0  0  0  0  0  0
   47.9251    2.7272    0.2618 C   0  0  0  0  0  0  0  0  0  0  0  0
   48.1272    1.3749    0.1138 N   0  0  0  0  0  0  0  0  0  0  0  0
   46.7229    3.3899    0.0598 C   0  0  0  0  0  0  0  0  0  0  0  0
   46.7076    4.8711    0.1432 C   0  0  0  0  0  0  0  0  0  0  0  0
   46.9651    5.5153    1.3552 C   0  0  0  0  0  0  0  0  0  0  0  0
   46.9527    6.8964    1.4389 C   0  0  0  0  0  0  0  0  0  0  0  0
   46.6892    7.6557    0.3003 C   0  0  0  0  0  0  0  0  0  0  0  0
   46.6901    9.0088    0.4168 O   0  0  0  0  0  0  0  0  0  0  0  0
   46.4348    7.0262   -0.9159 C   0  0  0  0  0  0  0  0  0  0  0  0
   46.4414    5.6417   -0.9884 C   0  0  0  0  0  0  0  0  0  0  0  0
   45.5367    2.7255   -0.2375 C   0  0  0  0  0  0  0  0  0  0  0  0
   44.2839    3.3826   -0.4752 C   0  0  0  0  0  0  0  0  0  0  0  0
   43.3516    2.4111   -0.6176 C   0  0  0  0  0  0  0  0  0  0  0  0
   44.0312    1.1623   -0.4477 C   0  0  0  0  0  0  0  0  0  0  0  0
   45.3713    1.3672   -0.2457 N   0  0  0  0  0  0  0  0  0  0  0  0
   42.3052   -0.0617   -0.4609 H   0  0  0  0  0  0  0  0  0  0  0  0
   42.2616   -2.6072    0.0823 H   0  0  0  0  0  0  0  0  0  0  0  0
   44.1524   -4.5094    0.3565 H   0  0  0  0  0  0  0  0  0  0  0  0
   45.5526   -5.2030   -1.7106 H   0  0  0  0  0  0  0  0  0  0  0  0
   45.5828   -7.6716   -1.6028 H   0  0  0  0  0  0  0  0  0  0  0  0
   46.3598   -9.5002   -0.4658 H   0  0  0  0  0  0  0  0  0  0  0  0
   48.0840   -7.4946    1.8692 H   0  0  0  0  0  0  0  0  0  0  0  0
   48.0469   -5.0186    1.7682 H   0  0  0  0  0  0  0  0  0  0  0  0
   49.3773   -4.5009   -0.5127 H   0  0  0  0  0  0  0  0  0  0  0  0
   51.2512   -2.5633   -0.5433 H   0  0  0  0  0  0  0  0  0  0  0  0
   51.2011    2.5508    0.5890 H   0  0  0  0  0  0  0  0  0  0  0  0
   49.2900    4.4502    0.6545 H   0  0  0  0  0  0  0  0  0  0  0  0
   47.1609    4.9239    2.2426 H   0  0  0  0  0  0  0  0  0  0  0  0
   47.1448    7.3996    2.3785 H   0  0  0  0  0  0  0  0  0  0  0  0
   46.5013    9.4357   -0.4296 H   0  0  0  0  0  0  0  0  0  0  0  0
   46.2352    7.6213   -1.8007 H   0  0  0  0  0  0  0  0  0  0  0  0
   46.2562    5.1528   -1.9384 H   0  0  0  0  0  0  0  0  0  0  0  0
   44.1446    4.4509   -0.5120 H   0  0  0  0  0  0  0  0  0  0  0  0
   42.2934    2.5122   -0.7999 H   0  0  0  0  0  0  0  0  0  0  0  0
   86.9901   -0.0070   -0.0644 Fe  0  0  0  0  0  0  0  0  0  0  0  0
   90.3705    0.0047   -0.2821 C   0  0  0  0  0  0  0  0  0  0  0  0
   89.7120    1.2080   -0.4287 C   0  0  0  0  0  0  0  0  0  0  0  0
   90.3832    2.4544   -0.6424 C   0  0  0  0  0  0  0  0  0  0  0  0
   89.4338    3.4185   -0.5959 C   0  0  0  0  0  0  0  0  0  0  0  0
   88.1805    2.7574   -0.3728 C   0  0  0  0  0  0  0  0  0  0  0  0
   88.3631    1.4041   -0.2861 N   0  0  0  0  0  0  0  0  0  0  0  0
   86.9720    3.4230   -0.1898 C   0  0  0  0  0  0  0  0  0  0  0  0
   86.9650    4.9059   -0.2268 C   0  0  0  0  0  0  0  0  0  0  0  0
   87.2956    5.5883   -1.3974 C   0  0  0  0  0  0  0  0  0  0  0  0
   87.2852    6.9742   -1.4353 C   0  0  0  0  0  0  0  0  0  0  0  0
   86.9485    7.6944   -0.2916 C   0  0  0  0  0  0  0  0  0  0  0  0
   86.9296    9.0522   -0.2832 O   0  0  0  0  0  0  0  0  0  0  0  0
   86.6185    7.0239    0.8849 C   0  0  0  0  0  0  0  0  0  0  0  0
   86.6239    5.6406    0.9110 C   0  0  0  0  0  0  0  0  0  0  0  0
   85.7700    2.7598    0.0107 C   0  0  0  0  0  0  0  0  0  0  0  0
   84.5051    3.4225    0.1326 C   0  0  0  0  0  0  0  0  0  0  0  0
   83.5580    2.4548    0.1702 C   0  0  0  0  0  0  0  0  0  0  0  0
   85.5925    1.3959   -0.0033 N   0  0  0  0  0  0  0  0  0  0  0  0
   84.2456    1.2055    0.0723 C   0  0  0  0  0  0  0  0  0  0  0  0
   83.5847   -0.0274   -0.0044 C   0  0  0  0  0  0  0  0  0  0  0  0
   84.2607   -1.2531   -0.0553 C   0  0  0  0  0  0  0  0  0  0  0  0
   83.5898   -2.5138   -0.1138 C   0  0  0  0  0  0  0  0  0  0  0  0
   84.5482   -3.4672   -0.0223 C   0  0  0  0  0  0  0  0  0  0  0  0
   85.8024   -2.7837    0.0910 C   0  0  0  0  0  0  0  0  0  0  0  0
   85.6098   -1.4239    0.0349 N   0  0  0  0  0  0  0  0  0  0  0  0
   87.0230   -3.4261    0.2487 C   0  0  0  0  0  0  0  0  0  0  0  0
   87.0315   -4.8997    0.4000 C   0  0  0  0  0  0  0  0  0  0  0  0
   86.3717   -5.5047    1.4729 C   0  0  0  0  0  0  0  0  0  0  0  0
   86.3762   -6.8799    1.6232 C   0  0  0  0  0  0  0  0  0  0  0  0
   87.0377   -7.6752    0.6890 C   0  0  0  0  0  0  0  0  0  0  0  0
   87.0183   -9.0214    0.8638 O   0  0  0  0  0  0  0  0  0  0  0  0
   87.6946   -7.0866   -0.3892 C   0  0  0  0  0  0  0  0  0  0  0  0
   87.6923   -5.7073   -0.5265 C   0  0  0  0  0  0  0  0  0  0  0  0
   88.2367   -2.7450    0.2478 C   0  0  0  0  0  0  0  0  0  0  0  0
   89.5136   -3.3794    0.4046 C   0  0  0  0  0  0  0  0  0  0  0  0
   90.4522   -2.4200    0.2250 C   0  0  0  0  0  0  0  0  0  0  0  0
   89.7476   -1.1973   -0.0150 C   0  0  0  0  0  0  0  0  0  0  0  0
   88.3939   -1.4024    0.0334 N   0  0  0  0  0  0  0  0  0  0  0  0
   91.4524    0.0083   -0.3551 H   0  0  0  0  0  0  0  0  0  0  0  0
   91.4467    2.5598   -0.7876 H   0  0  0  0  0  0  0  0  0  0  0  0
   89.5615    4.4847   -0.6897 H   0  0  0  0  0  0  0  0  0  0  0  0
   87.5455    5.0287   -2.2919 H   0  0  0  0  0  0  0  0  0  0  0  0
   87.5361    7.5001   -2.3503 H   0  0  0  0  0  0  0  0  0  0  0  0
   87.1744    9.4135   -1.1457 H   0  0  0  0  0  0  0  0  0  0  0  0
   86.3615    7.5970    1.7672 H   0  0  0  0  0  0  0  0  0  0  0  0
   86.3772    5.1186    1.8287 H   0  0  0  0  0  0  0  0  0  0  0  0
   84.3677    4.4911    0.1628 H   0  0  0  0  0  0  0  0  0  0  0  0
   82.4880    2.5621    0.2479 H   0  0  0  0  0  0  0  0  0  0  0  0
   82.5230   -2.6377   -0.2082 H   0  0  0  0  0  0  0  0  0  0  0  0
   84.4275   -4.5380   -0.0414 H   0  0  0  0  0  0  0  0  0  0  0  0
   85.8661   -4.8853    2.2052 H   0  0  0  0  0  0  0  0  0  0  0  0
   85.8726   -7.3510    2.4582 H   0  0  0  0  0  0  0  0  0  0  0  0
   87.5058   -9.4751    0.1632 H   0  0  0  0  0  0  0  0  0  0  0  0
   88.2028   -7.7098   -1.1172 H   0  0  0  0  0  0  0  0  0  0  0  0
   88.1917   -5.2517   -1.3743 H   0  0  0  0  0  0  0  0  0  0  0  0
   89.6614   -4.4239    0.6261 H   0  0  0  0  0  0  0  0  0  0  0  0
   91.5264   -2.5112    0.2574 H   0  0  0  0  0  0  0  0  0  0  0  0
   52.7818    0.0144   -0.0287 C   0  0  0  0  0  0  0  0  0  0  0  0
   51.5581    0.0075   -0.0219 C   0  0  0  0  0  0  0  0  0  0  0  0
   54.1283    0.0218   -0.0379 C   0  0  0  0  0  0  0  0  0  0  0  0
   55.3523    0.0241   -0.0422 C   0  0  0  0  0  0  0  0  0  0  0  0
   66.2049   -0.0034   -0.0490 C   0  0  0  0  0  0  0  0  0  0  0  0
   64.9798    0.0015   -0.0572 C   0  0  0  0  0  0  0  0  0  0  0  0
   67.5492   -0.0100   -0.0475 C   0  0  0  0  0  0  0  0  0  0  0  0
   68.7743   -0.0104   -0.0490 C   0  0  0  0  0  0  0  0  0  0  0  0
   79.6149   -0.0420   -0.0292 C   0  0  0  0  0  0  0  0  0  0  0  0
   78.3904   -0.0383   -0.0374 C   0  0  0  0  0  0  0  0  0  0  0  0
   80.9603   -0.0397   -0.0208 C   0  0  0  0  0  0  0  0  0  0  0  0
   82.1847   -0.0350   -0.0127 C   0  0  0  0  0  0  0  0  0  0  0  0
   60.1669    0.0268   -0.0743 Fe  0  0  0  0  0  0  0  0  0  0  0  0
   56.7527    0.0269   -0.0539 C   0  0  0  0  0  0  0  0  0  0  0  0
   57.4274    1.0095    0.6818 C   0  0  0  0  0  0  0  0  0  0  0  0
   56.7588    1.9867    1.4807 C   0  0  0  0  0  0  0  0  0  0  0  0
   57.7167    2.8227    1.9513 C   0  0  0  0  0  0  0  0  0  0  0  0
   58.9647    2.3560    1.4272 C   0  0  0  0  0  0  0  0  0  0  0  0
   58.7747    1.2176    0.6837 N   0  0  0  0  0  0  0  0  0  0  0  0
   60.1779    3.0110    1.6104 C   0  0  0  0  0  0  0  0  0  0  0  0
   60.1809    4.3017    2.3365 C   0  0  0  0  0  0  0  0  0  0  0  0
   60.9148    4.4518    3.5161 C   0  0  0  0  0  0  0  0  0  0  0  0
   60.9174    5.6539    4.2004 C   0  0  0  0  0  0  0  0  0  0  0  0
   60.1884    6.7336    3.7045 C   0  0  0  0  0  0  0  0  0  0  0  0
   60.2180    7.8999    4.3976 O   0  0  0  0  0  0  0  0  0  0  0  0
   59.4553    6.5998    2.5273 C   0  0  0  0  0  0  0  0  0  0  0  0
   59.4502    5.3884    1.8540 C   0  0  0  0  0  0  0  0  0  0  0  0
   61.3870    2.5071    1.1475 C   0  0  0  0  0  0  0  0  0  0  0  0
   62.6420    3.1833    1.2843 C   0  0  0  0  0  0  0  0  0  0  0  0
   63.5944    2.3350    0.8253 C   0  0  0  0  0  0  0  0  0  0  0  0
   61.5692    1.2778    0.5609 N   0  0  0  0  0  0  0  0  0  0  0  0
   62.9154    1.1531    0.3973 C   0  0  0  0  0  0  0  0  0  0  0  0
   63.5817    0.0090   -0.0640 C   0  0  0  0  0  0  0  0  0  0  0  0
   62.9063   -1.1246   -0.5376 C   0  0  0  0  0  0  0  0  0  0  0  0
   63.5754   -2.3091   -0.9736 C   0  0  0  0  0  0  0  0  0  0  0  0
   62.6177   -3.1395   -1.4541 C   0  0  0  0  0  0  0  0  0  0  0  0
   61.3693   -2.4510   -1.3190 C   0  0  0  0  0  0  0  0  0  0  0  0
   61.5602   -1.2315   -0.7154 N   0  0  0  0  0  0  0  0  0  0  0  0
   60.1571   -2.9390   -1.7914 C   0  0  0  0  0  0  0  0  0  0  0  0
   60.1526   -4.2198   -2.5346 C   0  0  0  0  0  0  0  0  0  0  0  0
   59.4125   -5.3077   -2.0694 C   0  0  0  0  0  0  0  0  0  0  0  0
   59.4111   -6.5099   -2.7589 C   0  0  0  0  0  0  0  0  0  0  0  0
   60.1477   -6.6333   -3.9350 C   0  0  0  0  0  0  0  0  0  0  0  0
   60.1712   -7.7904   -4.6437 O   0  0  0  0  0  0  0  0  0  0  0  0
   60.8871   -5.5527   -4.4133 C   0  0  0  0  0  0  0  0  0  0  0  0
   60.8906   -4.3599   -3.7130 C   0  0  0  0  0  0  0  0  0  0  0  0
   58.9474   -2.2817   -1.5935 C   0  0  0  0  0  0  0  0  0  0  0  0
   57.6933   -2.7409   -2.1098 C   0  0  0  0  0  0  0  0  0  0  0  0
   56.7402   -1.9163   -1.6102 C   0  0  0  0  0  0  0  0  0  0  0  0
   57.4182   -0.9501   -0.8059 C   0  0  0  0  0  0  0  0  0  0  0  0
   58.7655   -1.1549   -0.8301 N   0  0  0  0  0  0  0  0  0  0  0  0
   55.6947    2.0169    1.6514 H   0  0  0  0  0  0  0  0  0  0  0  0
   57.5974    3.6747    2.6004 H   0  0  0  0  0  0  0  0  0  0  0  0
   61.4714    3.6083    3.9087 H   0  0  0  0  0  0  0  0  0  0  0  0
   61.4779    5.7704    5.1197 H   0  0  0  0  0  0  0  0  0  0  0  0
   59.6777    8.5784    3.9707 H   0  0  0  0  0  0  0  0  0  0  0  0
   58.8932    7.4439    2.1426 H   0  0  0  0  0  0  0  0  0  0  0  0
   58.8894    5.2891    0.9313 H   0  0  0  0  0  0  0  0  0  0  0  0
   62.7694    4.1793    1.6759 H   0  0  0  0  0  0  0  0  0  0  0  0
   64.6609    2.4839    0.7732 H   0  0  0  0  0  0  0  0  0  0  0  0
   64.6396   -2.4711   -0.9136 H   0  0  0  0  0  0  0  0  0  0  0  0
   62.7373   -4.1315   -1.8579 H   0  0  0  0  0  0  0  0  0  0  0  0
   58.8496   -5.2172   -1.1471 H   0  0  0  0  0  0  0  0  0  0  0  0
   58.8413   -7.3549   -2.3877 H   0  0  0  0  0  0  0  0  0  0  0  0
   59.6240   -8.4704   -4.2281 H   0  0  0  0  0  0  0  0  0  0  0  0
   61.4510   -5.6615   -5.3315 H   0  0  0  0  0  0  0  0  0  0  0  0
   61.4554   -3.5155   -4.0918 H   0  0  0  0  0  0  0  0  0  0  0  0
   57.5666   -3.5810   -2.7730 H   0  0  0  0  0  0  0  0  0  0  0  0
   55.6740   -1.9462   -1.7665 H   0  0  0  0  0  0  0  0  0  0  0  0
   73.5822   -0.0162   -0.0606 Fe  0  0  0  0  0  0  0  0  0  0  0  0
   70.1721   -0.0115   -0.0527 C   0  0  0  0  0  0  0  0  0  0  0  0
   70.8476    0.9788    0.6753 C   0  0  0  0  0  0  0  0  0  0  0  0
   70.1834    1.9643    1.4681 C   0  0  0  0  0  0  0  0  0  0  0  0
   71.1419    2.8154    1.9106 C   0  0  0  0  0  0  0  0  0  0  0  0
   72.3854    2.3513    1.3732 C   0  0  0  0  0  0  0  0  0  0  0  0
   72.1922    1.1944    0.6579 N   0  0  0  0  0  0  0  0  0  0  0  0
   73.5920    3.0308    1.4937 C   0  0  0  0  0  0  0  0  0  0  0  0
   73.6014    4.3441    2.1770 C   0  0  0  0  0  0  0  0  0  0  0  0
   74.3823    4.5419    3.3191 C   0  0  0  0  0  0  0  0  0  0  0  0
   74.3899    5.7627    3.9689 C   0  0  0  0  0  0  0  0  0  0  0  0
   73.6202    6.8145    3.4739 C   0  0  0  0  0  0  0  0  0  0  0  0
   73.6559    7.9999    4.1329 O   0  0  0  0  0  0  0  0  0  0  0  0
   72.8425    6.6339    2.3321 C   0  0  0  0  0  0  0  0  0  0  0  0
   72.8314    5.4032    1.6947 C   0  0  0  0  0  0  0  0  0  0  0  0
   74.7935    2.5287    1.0046 C   0  0  0  0  0  0  0  0  0  0  0  0
   76.0391    3.2329    1.0535 C   0  0  0  0  0  0  0  0  0  0  0  0
   76.9922    2.3705    0.6206 C   0  0  0  0  0  0  0  0  0  0  0  0
   74.9786    1.2691    0.4908 N   0  0  0  0  0  0  0  0  0  0  0  0
   76.3226    1.1503    0.3000 C   0  0  0  0  0  0  0  0  0  0  0  0
   76.9916   -0.0324   -0.0457 C   0  0  0  0  0  0  0  0  0  0  0  0
   76.3149   -1.2068   -0.4037 C   0  0  0  0  0  0  0  0  0  0  0  0
   76.9765   -2.4291   -0.7325 C   0  0  0  0  0  0  0  0  0  0  0  0
   76.0201   -3.2771   -1.1860 C   0  0  0  0  0  0  0  0  0  0  0  0
   74.7800   -2.5631   -1.1383 C   0  0  0  0  0  0  0  0  0  0  0  0
   74.9714   -1.3115   -0.6078 N   0  0  0  0  0  0  0  0  0  0  0  0
   73.5767   -3.0523   -1.6364 C   0  0  0  0  0  0  0  0  0  0  0  0
   73.5799   -4.3580   -2.3337 C   0  0  0  0  0  0  0  0  0  0  0  0
   72.7990   -5.4163   -1.8670 C   0  0  0  0  0  0  0  0  0  0  0  0
   72.8032   -6.6399   -2.5178 C   0  0  0  0  0  0  0  0  0  0  0  0
   73.5858   -6.8145   -3.6572 C   0  0  0  0  0  0  0  0  0  0  0  0
   73.6151   -7.9932   -4.3287 O   0  0  0  0  0  0  0  0  0  0  0  0
   74.3669   -5.7640   -4.1364 C   0  0  0  0  0  0  0  0  0  0  0  0
   74.3654   -4.5501   -3.4736 C   0  0  0  0  0  0  0  0  0  0  0  0
   72.3733   -2.3688   -1.5076 C   0  0  0  0  0  0  0  0  0  0  0  0
   71.1264   -2.8237   -2.0452 C   0  0  0  0  0  0  0  0  0  0  0  0
   70.1716   -1.9763   -1.5879 C   0  0  0  0  0  0  0  0  0  0  0  0
   70.8416   -1.0004   -0.7883 C   0  0  0  0  0  0  0  0  0  0  0  0
   72.1857   -1.2191   -0.7791 N   0  0  0  0  0  0  0  0  0  0  0  0
   69.1217    1.9903    1.6535 H   0  0  0  0  0  0  0  0  0  0  0  0
   71.0256    3.6777    2.5466 H   0  0  0  0  0  0  0  0  0  0  0  0
   74.9715    3.7203    3.7107 H   0  0  0  0  0  0  0  0  0  0  0  0
   74.9855    5.9161    4.8603 H   0  0  0  0  0  0  0  0  0  0  0  0
   73.0850    8.6565    3.7118 H   0  0  0  0  0  0  0  0  0  0  0  0
   72.2501    7.4568    1.9468 H   0  0  0  0  0  0  0  0  0  0  0  0
   72.2351    5.2676    0.7993 H   0  0  0  0  0  0  0  0  0  0  0  0
   76.1601    4.2549    1.3736 H   0  0  0  0  0  0  0  0  0  0  0  0
   78.0538    2.5321    0.5252 H   0  0  0  0  0  0  0  0  0  0  0  0
   78.0359   -2.6011   -0.6299 H   0  0  0  0  0  0  0  0  0  0  0  0
   76.1354   -4.2956   -1.5190 H   0  0  0  0  0  0  0  0  0  0  0  0
   72.1995   -5.2857   -0.9729 H   0  0  0  0  0  0  0  0  0  0  0  0
   72.2018   -7.4620   -2.1450 H   0  0  0  0  0  0  0  0  0  0  0  0
   73.0376   -8.6497   -3.9162 H   0  0  0  0  0  0  0  0  0  0  0  0
   74.9665   -5.9125   -5.0259 H   0  0  0  0  0  0  0  0  0  0  0  0
   74.9634   -3.7292   -3.8533 H   0  0  0  0  0  0  0  0  0  0  0  0
   71.0052   -3.6779   -2.6912 H   0  0  0  0  0  0  0  0  0  0  0  0
   69.1090   -1.9978   -1.7690 H   0  0  0  0  0  0  0  0  0  0  0  0
  2  3  4  0  0  0  0
  3  4  4  0  0  0  0
  4  5  2  0  0  0  0
  5  6  4  0  0  0  0
  1  7  1  0  0  0  0
  3  7  4  0  0  0  0
  6  7  4  0  0  0  0
  6  8  4  0  0  0  0
  8  9  1  0  0  0  0
  9 10  4  0  0  0  0
 10 11  4  0  0  0  0
 11 12  4  0  0  0  0
 12 13  1  0  0  0  0
 12 14  4  0  0  0  0
  9 15  4  0  0  0  0
 14 15  4  0  0  0  0
  8 16  4  0  0  0  0
 16 17  4  0  0  0  0
 17 18  2  0  0  0  0
  1 19  1  0  0  0  0
 16 19  4  0  0  0  0
 18 20  4  0  0  0  0
 19 20  4  0  0  0  0
 20 21  4  0  0  0  0
 21 22  4  0  0  0  0
 22 23  4  0  0  0  0
 23 24  2  0  0  0  0
 24 25  4  0  0  0  0
  1 26  1  0  0  0  0
 22 26  4  0  0  0  0
 25 26  4  0  0  0  0
 25 27  4  0  0  0  0
 27 28  1  0  0  0  0
 28 29  4  0  0  0  0
 29 30  4  0  0  0  0
 30 31  4  0  0  0  0
 31 32  1  0  0  0  0
 31 33  4  0  0  0  0
 28 34  4  0  0  0  0
 33 34  4  0  0  0  0
 27 35  4  0  0  0  0
 35 36  4  0  0  0  0
 36 37  2  0  0  0  0
  2 38  4  0  0  0  0
 37 38  4  0  0  0  0
  1 39  1  0  0  0  0
 35 39  4  0  0  0  0
 38 39  4  0  0  0  0
  2 40  1  0  0  0  0
  4 41  1  0  0  0  0
  5 42  1  0  0  0  0
 10 43  1  0  0  0  0
 11 44  1  0  0  0  0
 13 45  1  0  0  0  0
 14 46  1  0  0  0  0
 15 47  1  0  0  0  0
 17 48  1  0  0  0  0
 18 49  1  0  0  0  0
 23 50  1  0  0  0  0
 24 51  1  0  0  0  0
 29 52  1  0  0  0  0
 30 53  1  0  0  0  0
 32 54  1  0  0  0  0
 33 55  1  0  0  0  0
 34 56  1  0  0  0  0
 36 57  1  0  0  0  0
 37 58  1  0  0  0  0
 60 61  4  0  0  0  0
 61 62  4  0  0  0  0
 62 63  2  0  0  0  0
 63 64  4  0  0  0  0
 59 65  1  0  0  0  0
 61 65  4  0  0  0  0
 64 65  4  0  0  0  0
 64 66  4  0  0  0  0
 66 67  1  0  0  0  0
 67 68  4  0  0  0  0
 68 69  4  0  0  0  0
 69 70  4  0  0  0  0
 70 71  1  0  0  0  0
 70 72  4  0  0  0  0
 67 73  4  0  0  0  0
 72 73  4  0  0  0  0
 66 74  4  0  0  0  0
 74 75  4  0  0  0  0
 75 76  2  0  0  0  0
 59 77  1  0  0  0  0
 74 77  4  0  0  0  0
 76 78  4  0  0  0  0
 77 78  4  0  0  0  0
 78 79  4  0  0  0  0
 79 80  4  0  0  0  0
 80 81  4  0  0  0  0
 81 82  2  0  0  0  0
 82 83  4  0  0  0  0
 59 84  1  0  0  0  0
 80 84  4  0  0  0  0
 83 84  4  0  0  0  0
 83 85  4  0  0  0  0
 85 86  1  0  0  0  0
 86 87  4  0  0  0  0
 87 88  4  0  0  0  0
 88 89  4  0  0  0  0
 89 90  1  0  0  0  0
 89 91  4  0  0  0  0
 86 92  4  0  0  0  0
 91 92  4  0  0  0  0
 85 93  4  0  0  0  0
 93 94  4  0  0  0  0
 94 95  2  0  0  0  0
 60 96  4  0  0  0  0
 95 96  4  0  0  0  0
 59 97  1  0  0  0  0
 93 97  4  0  0  0  0
 96 97  4  0  0  0  0
 60 98  1  0  0  0  0
 62 99  1  0  0  0  0
 63100  1  0  0  0  0
 68101  1  0  0  0  0
 69102  1  0  0  0  0
 71103  1  0  0  0  0
 72104  1  0  0  0  0
 73105  1  0  0  0  0
 75106  1  0  0  0  0
 76107  1  0  0  0  0
 81108  1  0  0  0  0
 82109  1  0  0  0  0
 87110  1  0  0  0  0
 88111  1  0  0  0  0
 90112  1  0  0  0  0
 91113  1  0  0  0  0
 92114  1  0  0  0  0
 94115  1  0  0  0  0
 95116  1  0  0  0  0
 21118  4  0  0  0  0
117118  3  0  0  0  0
117119  4  0  0  0  0
119120  3  0  0  0  0
121122  3  0  0  0  0
121123  4  0  0  0  0
123124  3  0  0  0  0
125126  3  0  0  0  0
125127  4  0  0  0  0
 79128  4  0  0  0  0
127128  3  0  0  0  0
120130  4  0  0  0  0
130131  4  0  0  0  0
131132  4  0  0  0  0
132133  2  0  0  0  0
133134  4  0  0  0  0
129135  1  0  0  0  0
131135  4  0  0  0  0
134135  4  0  0  0  0
134136  4  0  0  0  0
136137  1  0  0  0  0
137138  4  0  0  0  0
138139  4  0  0  0  0
139140  4  0  0  0  0
140141  1  0  0  0  0
140142  4  0  0  0  0
137143  4  0  0  0  0
142143  4  0  0  0  0
136144  4  0  0  0  0
144145  4  0  0  0  0
145146  2  0  0  0  0
129147  1  0  0  0  0
144147  4  0  0  0  0
146148  4  0  0  0  0
147148  4  0  0  0  0
122149  4  0  0  0  0
148149  4  0  0  0  0
149150  4  0  0  0  0
150151  4  0  0  0  0
151152  2  0  0  0  0
152153  4  0  0  0  0
129154  1  0  0  0  0
150154  4  0  0  0  0
153154  4  0  0  0  0
153155  4  0  0  0  0
155156  1  0  0  0  0
156157  4  0  0  0  0
157158  4  0  0  0  0
158159  4  0  0  0  0
159160  1  0  0  0  0
159161  4  0  0  0  0
156162  4  0  0  0  0
161162  4  0  0  0  0
155163  4  0  0  0  0
163164  4  0  0  0  0
164165  2  0  0  0  0
130166  4  0  0  0  0
165166  4  0  0  0  0
129167  1  0  0  0  0
163167  4  0  0  0  0
166167  4  0  0  0  0
132168  1  0  0  0  0
133169  1  0  0  0  0
138170  1  0  0  0  0
139171  1  0  0  0  0
141172  1  0  0  0  0
142173  1  0  0  0  0
143174  1  0  0  0  0
145175  1  0  0  0  0
146176  1  0  0  0  0
151177  1  0  0  0  0
152178  1  0  0  0  0
157179  1  0  0  0  0
158180  1  0  0  0  0
160181  1  0  0  0  0
161182  1  0  0  0  0
162183  1  0  0  0  0
164184  1  0  0  0  0
165185  1  0  0  0  0
124187  4  0  0  0  0
187188  4  0  0  0  0
188189  4  0  0  0  0
189190  2  0  0  0  0
190191  4  0  0  0  0
186192  1  0  0  0  0
188192  4  0  0  0  0
191192  4  0  0  0  0
191193  4  0  0  0  0
193194  1  0  0  0  0
194195  4  0  0  0  0
195196  4  0  0  0  0
196197  4  0  0  0  0
197198  1  0  0  0  0
197199  4  0  0  0  0
194200  4  0  0  0  0
199200  4  0  0  0  0
193201  4  0  0  0  0
201202  4  0  0  0  0
202203  2  0  0  0  0
186204  1  0  0  0  0
201204  4  0  0  0  0
203205  4  0  0  0  0
204205  4  0  0  0  0
126206  4  0  0  0  0
205206  4  0  0  0  0
206207  4  0  0  0  0
207208  4  0  0  0  0
208209  2  0  0  0  0
209210  4  0  0  0  0
186211  1  0  0  0  0
207211  4  0  0  0  0
210211  4  0  0  0  0
210212  4  0  0  0  0
212213  1  0  0  0  0
213214  4  0  0  0  0
214215  4  0  0  0  0
215216  4  0  0  0  0
216217  1  0  0  0  0
216218  4  0  0  0  0
213219  4  0  0  0  0
218219  4  0  0  0  0
212220  4  0  0  0  0
220221  4  0  0  0  0
221222  2  0  0  0  0
187223  4  0  0  0  0
222223  4  0  0  0  0
186224  1  0  0  0  0
220224  4  0  0  0  0
223224  4  0  0  0  0
189225  1  0  0  0  0
190226  1  0  0  0  0
195227  1  0  0  0  0
196228  1  0  0  0  0
198229  1  0  0  0  0
199230  1  0  0  0  0
200231  1  0  0  0  0
202232  1  0  0  0  0
203233  1  0  0  0  0
208234  1  0  0  0  0
209235  1  0  0  0  0
214236  1  0  0  0  0
215237  1  0  0  0  0
217238  1  0  0  0  0
218239  1  0  0  0  0
219240  1  0  0  0  0
221241  1  0  0  0  0
222242  1  0  0  0  0
M  END
