380

C 69.884481 -0.031760 0.090155
C 70.612700 1.344204 0.168907
C 70.005392 2.565864 0.347275
C 71.028012 3.548698 0.300204
C 72.225482 2.892942 0.085128
N 71.964737 1.545675 0.053762
C 73.648323 3.561744 -0.117823
C 73.687720 5.027719 -0.321552
C 73.992069 5.879028 0.747709
C 74.021002 7.262732 0.560683
C 73.744502 7.802557 -0.699972
C 73.775296 9.222312 -0.895861
N 73.799021 10.371796 -1.060148
C 73.437806 6.955149 -1.770445
C 73.409582 5.571177 -1.579758
C 74.778596 2.805259 -0.141306
C 76.081689 3.386154 -0.393393
C 76.985116 2.413535 -0.377233
N 74.976714 1.459763 0.026474
C 76.308675 1.160813 -0.102741
C 76.980041 -0.018839 -0.017420
C 76.206895 -1.366836 0.309504
C 76.760595 -2.518262 0.836708
C 75.733281 -3.491418 0.909319
C 74.579587 -2.905328 0.433757
N 74.865030 -1.596744 0.127284
C 73.166507 -3.608176 0.279239
C 73.134127 -5.083953 0.192497
C 72.791767 -5.854564 1.310781
C 72.770367 -7.247740 1.225426
C 73.095642 -7.879108 0.019784
C 73.071978 -9.309409 -0.070434
N 73.053784 -10.468399 -0.144154
C 73.442296 -7.112527 -1.098849
C 73.460644 -5.719491 -1.010658
C 72.039161 -2.855675 0.194882
C 70.715764 -3.434311 0.039393
C 69.828436 -2.444130 0.001981
C 70.550735 -1.201372 0.115188
N 71.873132 -1.499090 0.224655
H 68.805635 -0.030315 -0.010864
H 68.947432 2.731792 0.480326
H 70.899737 4.616816 0.389058
H 72.664137 0.813064 -0.036660
H 74.210587 5.445200 1.722286
H 74.260820 7.904749 1.403805
H 73.222076 7.355282 -2.756784
H 73.174191 4.902011 -2.404183
H 76.294620 4.423721 -0.579083
H 78.037641 2.556111 -0.541093
H 77.793706 -2.652341 1.119508
H 75.831546 -4.508970 1.251541
H 74.177126 -0.901141 -0.152266
H 72.537295 -5.350828 2.241093
H 72.498982 -7.826603 2.103957
H 73.700509 -7.583745 -2.043651
H 73.724262 -5.111119 -1.874997
H 70.484229 -4.481167 -0.033481
H 68.763148 -2.544027 -0.105240
C 159.198074 0.023446 0.082336
C 158.469855 -1.276534 0.540083
C 159.077163 -2.400616 1.050678
C 158.054543 -3.357867 1.278381
C 156.857073 -2.787626 0.889666
N 157.117818 -1.502056 0.485413
C 155.434232 -3.486482 0.880418
C 155.394835 -4.951375 1.091787
C 155.090486 -5.472280 2.355395
C 155.061553 -6.853499 2.559965
C 155.338054 -7.722164 1.498795
C 155.307260 -9.140477 1.704862
N 155.283535 -10.290374 1.866236
C 155.644749 -7.205343 0.235106
C 155.672974 -5.822850 0.033978
C 154.303959 -2.766270 0.647790
C 153.000866 -3.394320 0.566926
C 152.097439 -2.455467 0.312364
N 154.105842 -1.427101 0.435341
C 152.773880 -1.175790 0.228192
C 152.102514 -0.018839 -0.017420
C 152.875660 1.366925 -0.077679
C 152.321961 2.619465 0.109052
C 153.349275 3.574511 -0.091429
C 154.502968 2.879413 -0.385536
N 154.217525 1.537190 -0.316575
C 155.916049 3.511711 -0.729150
C 155.948429 4.905360 -1.222289
C 156.290788 5.956199 -0.361978
C 156.312188 7.270879 -0.830847
C 155.986913 7.542622 -2.164397
C 156.010578 8.891618 -2.648246
N 156.028772 9.984554 -3.040906
C 155.640259 6.495558 -3.026163
C 155.621911 5.181798 -2.554608
C 157.043394 2.765380 -0.601228
C 158.366791 3.278081 -0.911283
C 159.254120 2.316454 -0.672260
C 158.531821 1.154009 -0.218404
N 157.209424 1.470416 -0.195916
H 160.276921 -0.005994 -0.014309
H 160.135123 -2.523072 1.224573
H 158.182818 -4.359303 1.660346
H 156.418418 -0.823367 0.195108
H 154.871968 -4.784884 3.171173
H 154.821735 -7.236140 3.548209
H 155.860479 -7.863636 -0.601329
H 155.908364 -5.408936 -0.943843
H 152.787935 -4.442646 0.676660
H 151.044915 -2.637937 0.194541
H 151.288849 2.826803 0.343497
H 153.251009 4.647076 -0.045230
H 154.905430 0.791317 -0.391969
H 156.545261 5.730613 0.671629
H 156.583573 8.070936 -0.147612
H 155.382046 6.685881 -4.064659
H 155.358293 4.357334 -3.216014
H 158.598327 4.263529 -1.271992
H 160.319408 2.382648 -0.803006
C 83.194644 -0.017737 -0.008930
C 81.985704 -0.031192 -0.017377
C 80.564176 -0.022373 -0.029360
C 79.352506 -0.014934 -0.018497
C 84.611248 -0.024412 -0.008397
C 85.831944 -0.014934 -0.018497
C 99.169883 -0.017737 -0.008930
C 97.960943 -0.031192 -0.017377
C 96.539414 -0.022373 -0.029360
C 95.327745 -0.014934 -0.018497
C 100.586487 -0.024412 -0.008397
C 101.807183 -0.014934 -0.018497
C 115.145122 -0.017737 -0.008930
C 113.936182 -0.031192 -0.017377
C 112.514653 -0.022373 -0.029360
C 111.302984 -0.014934 -0.018497
C 116.561726 -0.024412 -0.008397
C 117.782422 -0.014934 -0.018497
C 131.120360 -0.017737 -0.008930
C 129.911421 -0.031192 -0.017377
C 128.489892 -0.022373 -0.029360
C 127.278223 -0.014934 -0.018497
C 132.536965 -0.024412 -0.008397
C 133.757661 -0.014934 -0.018497
C 147.095599 -0.017737 -0.008930
C 145.886660 -0.031192 -0.017377
C 144.465131 -0.022373 -0.029360
C 143.253462 -0.014934 -0.018497
C 148.512204 -0.024412 -0.008397
C 149.732900 -0.014934 -0.018497
C 86.999367 0.011513 0.011252
C 87.794601 1.163244 -0.730485
C 87.293435 2.383612 -1.135245
C 88.331997 3.059337 -1.825963
C 89.435776 2.232481 -1.815939
N 89.121372 1.117050 -1.081181
C 90.822605 2.506211 -2.527185
C 90.810472 3.351596 -3.741550
C 90.333811 2.832760 -4.950986
C 90.307190 3.629445 -6.097826
C 90.756414 4.953600 -6.039345
C 90.730337 5.772686 -7.215318
N 90.709048 6.438666 -8.167350
C 91.230520 5.478110 -4.831506
C 91.254885 4.678717 -3.686765
C 91.958982 1.933952 -2.050845
C 93.244402 2.105132 -2.696469
C 94.153483 1.425071 -2.006215
N 92.168820 1.122930 -0.970889
C 93.492996 0.785375 -0.886517
C 94.157322 0.011513 0.011252
C 93.362105 -0.661919 1.204220
C 93.863356 -0.995142 2.445989
C 92.824801 -1.645346 3.160787
C 91.720920 -1.683173 2.334876
N 92.035271 -1.014476 1.178620
C 90.334095 -2.377301 2.649568
C 90.346414 -3.540745 3.563777
C 90.824717 -4.777658 3.116101
C 90.851547 -5.876578 3.977657
C 90.400911 -5.742214 5.295789
C 90.427151 -6.868982 6.181339
N 90.448515 -7.781103 6.900988
C 89.925216 -4.506555 5.749259
C 89.900673 -3.409864 4.885111
C 89.197688 -1.935019 2.050643
C 87.912318 -2.569757 2.258900
C 87.003228 -1.920275 1.539817
C 87.663664 -0.839574 0.836195
N 88.987797 -0.903970 1.178298
H 86.287842 2.740724 -0.972070
H 88.274100 4.030021 -2.294663
H 89.778908 0.394610 -0.802331
H 89.986381 1.801628 -4.985050
H 89.934505 3.204953 -7.026322
H 91.583981 6.503753 -4.767051
H 91.623236 5.074081 -2.741663
H 93.440168 2.674243 -3.587309
H 95.197580 1.367595 -2.254651
H 94.868999 -0.811656 2.792911
H 92.882742 -2.056944 4.157037
H 91.377658 -0.777835 0.441373
H 91.173277 -4.870849 2.089008
H 91.225503 -6.827669 3.607816
H 89.570643 -4.383363 6.769133
H 89.531126 -2.443855 5.224931
H 87.716600 -3.426106 2.878711
H 85.959176 -2.171798 1.496713
C 102.974606 0.011513 0.011252
C 103.769840 1.163244 -0.730485
C 103.268674 2.383612 -1.135245
C 104.307236 3.059337 -1.825963
C 105.411014 2.232481 -1.815939
N 105.096610 1.117050 -1.081181
C 106.797844 2.506211 -2.527185
C 106.785711 3.351596 -3.741550
C 106.309050 2.832760 -4.950986
C 106.282429 3.629445 -6.097826
C 106.731653 4.953600 -6.039345
C 106.705576 5.772686 -7.215318
N 106.684287 6.438666 -8.167350
C 107.205759 5.478110 -4.831506
C 107.230124 4.678717 -3.686765
C 107.934221 1.933952 -2.050845
C 109.219641 2.105132 -2.696469
C 110.128722 1.425071 -2.006215
N 108.144059 1.122930 -0.970889
C 109.468235 0.785375 -0.886517
C 110.132560 0.011513 0.011252
C 109.337344 -0.661919 1.204220
C 109.838595 -0.995142 2.445989
C 108.800040 -1.645346 3.160787
C 107.696159 -1.683173 2.334876
N 108.010510 -1.014476 1.178620
C 106.309334 -2.377301 2.649568
C 106.321653 -3.540745 3.563777
C 106.799956 -4.777658 3.116101
C 106.826786 -5.876578 3.977657
C 106.376150 -5.742214 5.295789
C 106.402390 -6.868982 6.181339
N 106.423754 -7.781103 6.900988
C 105.900454 -4.506555 5.749259
C 105.875912 -3.409864 4.885111
C 105.172927 -1.935019 2.050643
C 103.887557 -2.569757 2.258900
C 102.978467 -1.920275 1.539817
C 103.638903 -0.839574 0.836195
N 104.963036 -0.903970 1.178298
H 102.263081 2.740724 -0.972070
H 104.249338 4.030021 -2.294663
H 105.754147 0.394610 -0.802331
H 105.961620 1.801628 -4.985050
H 105.909744 3.204953 -7.026322
H 107.559220 6.503753 -4.767051
H 107.598475 5.074081 -2.741663
H 109.415407 2.674243 -3.587309
H 111.172819 1.367595 -2.254651
H 110.844238 -0.811656 2.792911
H 108.857981 -2.056944 4.157037
H 107.352897 -0.777835 0.441373
H 107.148516 -4.870849 2.089008
H 107.200742 -6.827669 3.607816
H 105.545882 -4.383363 6.769133
H 105.506365 -2.443855 5.224931
H 103.691839 -3.426106 2.878711
H 101.934415 -2.171798 1.496713
C 118.949845 0.011513 0.011252
C 119.745079 1.163244 -0.730485
C 119.243913 2.383612 -1.135245
C 120.282475 3.059337 -1.825963
C 121.386253 2.232481 -1.815939
N 121.071849 1.117050 -1.081181
C 122.773083 2.506211 -2.527185
C 122.760950 3.351596 -3.741550
C 122.284289 2.832760 -4.950986
C 122.257668 3.629445 -6.097826
C 122.706892 4.953600 -6.039345
C 122.680815 5.772686 -7.215318
N 122.659526 6.438666 -8.167350
C 123.180998 5.478110 -4.831506
C 123.205363 4.678717 -3.686765
C 123.909460 1.933952 -2.050845
C 125.194880 2.105132 -2.696469
C 126.103961 1.425071 -2.006215
N 124.119298 1.122930 -0.970889
C 125.443474 0.785375 -0.886517
C 126.107799 0.011513 0.011252
C 125.312582 -0.661919 1.204220
C 125.813834 -0.995142 2.445989
C 124.775279 -1.645346 3.160787
C 123.671398 -1.683173 2.334876
N 123.985749 -1.014476 1.178620
C 122.284573 -2.377301 2.649568
C 122.296892 -3.540745 3.563777
C 122.775195 -4.777658 3.116101
C 122.802024 -5.876578 3.977657
C 122.351389 -5.742214 5.295789
C 122.377629 -6.868982 6.181339
N 122.398993 -7.781103 6.900988
C 121.875693 -4.506555 5.749259
C 121.851151 -3.409864 4.885111
C 121.148166 -1.935019 2.050643
C 119.862796 -2.569757 2.258900
C 118.953705 -1.920275 1.539817
C 119.614142 -0.839574 0.836195
N 120.938275 -0.903970 1.178298
H 118.238320 2.740724 -0.972070
H 120.224577 4.030021 -2.294663
H 121.729386 0.394610 -0.802331
H 121.936859 1.801628 -4.985050
H 121.884983 3.204953 -7.026322
H 123.534459 6.503753 -4.767051
H 123.573714 5.074081 -2.741663
H 125.390646 2.674243 -3.587309
H 127.148057 1.367595 -2.254651
H 126.819477 -0.811656 2.792911
H 124.833220 -2.056944 4.157037
H 123.328136 -0.777835 0.441373
H 123.123755 -4.870849 2.089008
H 123.175981 -6.827669 3.607816
H 121.521121 -4.383363 6.769133
H 121.481604 -2.443855 5.224931
H 119.667078 -3.426106 2.878711
H 117.909654 -2.171798 1.496713
C 134.925084 0.011513 0.011252
C 135.720318 1.163244 -0.730485
C 135.219152 2.383612 -1.135245
C 136.257714 3.059337 -1.825963
C 137.361492 2.232481 -1.815939
N 137.047088 1.117050 -1.081181
C 138.748322 2.506211 -2.527185
C 138.736189 3.351596 -3.741550
C 138.259527 2.832760 -4.950986
C 138.232907 3.629445 -6.097826
C 138.682131 4.953600 -6.039345
C 138.656054 5.772686 -7.215318
N 138.634765 6.438666 -8.167350
C 139.156237 5.478110 -4.831506
C 139.180602 4.678717 -3.686765
C 139.884698 1.933952 -2.050845
C 141.170119 2.105132 -2.696469
C 142.079200 1.425071 -2.006215
N 140.094537 1.122930 -0.970889
C 141.418713 0.785375 -0.886517
C 142.083038 0.011513 0.011252
C 141.287821 -0.661919 1.204220
C 141.789073 -0.995142 2.445989
C 140.750518 -1.645346 3.160787
C 139.646637 -1.683173 2.334876
N 139.960988 -1.014476 1.178620
C 138.259812 -2.377301 2.649568
C 138.272131 -3.540745 3.563777
C 138.750434 -4.777658 3.116101
C 138.777263 -5.876578 3.977657
C 138.326628 -5.742214 5.295789
C 138.352868 -6.868982 6.181339
N 138.374232 -7.781103 6.900988
C 137.850932 -4.506555 5.749259
C 137.826390 -3.409864 4.885111
C 137.123405 -1.935019 2.050643
C 135.838035 -2.569757 2.258900
C 134.928944 -1.920275 1.539817
C 135.589380 -0.839574 0.836195
N 136.913514 -0.903970 1.178298
H 134.213559 2.740724 -0.972070
H 136.199816 4.030021 -2.294663
H 137.704625 0.394610 -0.802331
H 137.912098 1.801628 -4.985050
H 137.860222 3.204953 -7.026322
H 139.509698 6.503753 -4.767051
H 139.548953 5.074081 -2.741663
H 141.365885 2.674243 -3.587309
H 143.123296 1.367595 -2.254651
H 142.794716 -0.811656 2.792911
H 140.808459 -2.056944 4.157037
H 139.303375 -0.777835 0.441373
H 139.098994 -4.870849 2.089008
H 139.151219 -6.827669 3.607816
H 137.496360 -4.383363 6.769133
H 137.456843 -2.443855 5.224931
H 135.642317 -3.426106 2.878711
H 133.884893 -2.171798 1.496713
