 xtb: 6.5.1 (b24c23e)
          07292222043D

148179  0     0  0            999 V2000
   28.8348    0.3177   -0.6221 Co  0  0  0  0  0  0  0  0  0  0  0  0
   25.4922    0.0013   -0.3752 C   0  0  0  0  0  0  0  0  0  0  0  0
   26.1629   -0.8217   -1.2576 C   0  0  0  0  0  0  0  0  0  0  0  0
   25.5198   -1.7585   -2.1314 C   0  0  0  0  0  0  0  0  0  0  0  0
   26.4765   -2.2360   -2.9629 C   0  0  0  0  0  0  0  0  0  0  0  0
   27.7134   -1.6377   -2.5548 C   0  0  0  0  0  0  0  0  0  0  0  0
   27.5066   -0.7654   -1.5203 N   0  0  0  0  0  0  0  0  0  0  0  0
   28.9507   -2.0042   -3.0488 C   0  0  0  0  0  0  0  0  0  0  0  0
   30.1346   -1.6331   -2.4482 C   0  0  0  0  0  0  0  0  0  0  0  0
   31.4034   -2.2290   -2.7392 C   0  0  0  0  0  0  0  0  0  0  0  0
   32.2763   -1.7525   -1.8182 C   0  0  0  0  0  0  0  0  0  0  0  0
   30.2486   -0.7560   -1.3952 N   0  0  0  0  0  0  0  0  0  0  0  0
   31.5540   -0.8193   -1.0089 C   0  0  0  0  0  0  0  0  0  0  0  0
   32.1562    0.0102   -0.0539 C   0  0  0  0  0  0  0  0  0  0  0  0
   31.4863    1.1333    0.4491 C   0  0  0  0  0  0  0  0  0  0  0  0
   32.1368    2.2051    1.1383 C   0  0  0  0  0  0  0  0  0  0  0  0
   31.2058    3.1725    1.3247 C   0  0  0  0  0  0  0  0  0  0  0  0
   29.9736    2.6610    0.8052 C   0  0  0  0  0  0  0  0  0  0  0  0
   30.1686    1.4179    0.2497 N   0  0  0  0  0  0  0  0  0  0  0  0
   28.7493    3.2674    0.9859 C   0  0  0  0  0  0  0  0  0  0  0  0
   27.5512    2.6245    0.7392 C   0  0  0  0  0  0  0  0  0  0  0  0
   26.2760    3.1002    1.1881 C   0  0  0  0  0  0  0  0  0  0  0  0
   25.3765    2.1267    0.9090 C   0  0  0  0  0  0  0  0  0  0  0  0
   26.0929    1.0849    0.2334 C   0  0  0  0  0  0  0  0  0  0  0  0
   27.4252    1.3953    0.1506 N   0  0  0  0  0  0  0  0  0  0  0  0
   24.4257   -0.1399   -0.2445 H   0  0  0  0  0  0  0  0  0  0  0  0
   24.4651   -1.9839   -2.1145 H   0  0  0  0  0  0  0  0  0  0  0  0
   26.3797   -2.9507   -3.7649 H   0  0  0  0  0  0  0  0  0  0  0  0
   28.9890   -2.7057   -3.8740 H   0  0  0  0  0  0  0  0  0  0  0  0
   31.5779   -2.9419   -3.5294 H   0  0  0  0  0  0  0  0  0  0  0  0
   33.3256   -1.9746   -1.7077 H   0  0  0  0  0  0  0  0  0  0  0  0
   33.1812    2.2163    1.4055 H   0  0  0  0  0  0  0  0  0  0  0  0
   31.3178    4.1353    1.7974 H   0  0  0  0  0  0  0  0  0  0  0  0
   28.7227    4.2475    1.4479 H   0  0  0  0  0  0  0  0  0  0  0  0
   26.1160    4.0476    1.6784 H   0  0  0  0  0  0  0  0  0  0  0  0
   24.3161    2.1097    1.1053 H   0  0  0  0  0  0  0  0  0  0  0  0
   60.1816   -0.1970    0.1436 Co  0  0  0  0  0  0  0  0  0  0  0  0
   63.1719   -0.8242    1.5824 C   0  0  0  0  0  0  0  0  0  0  0  0
   62.7404    0.4846    1.5149 C   0  0  0  0  0  0  0  0  0  0  0  0
   63.5127    1.6064    1.9621 C   0  0  0  0  0  0  0  0  0  0  0  0
   62.8405    2.7184    1.5811 C   0  0  0  0  0  0  0  0  0  0  0  0
   61.6315    2.2736    0.9528 C   0  0  0  0  0  0  0  0  0  0  0  0
   61.5859    0.9057    0.9078 N   0  0  0  0  0  0  0  0  0  0  0  0
   60.6093    3.1169    0.5653 C   0  0  0  0  0  0  0  0  0  0  0  0
   59.3586    2.6631    0.2064 C   0  0  0  0  0  0  0  0  0  0  0  0
   58.2142    3.5111    0.0630 C   0  0  0  0  0  0  0  0  0  0  0  0
   57.1483    2.6952   -0.1206 C   0  0  0  0  0  0  0  0  0  0  0  0
   59.0006    1.3434    0.0624 N   0  0  0  0  0  0  0  0  0  0  0  0
   57.6519    1.3560   -0.1439 C   0  0  0  0  0  0  0  0  0  0  0  0
   56.8725    0.2438   -0.4792 C   0  0  0  0  0  0  0  0  0  0  0  0
   57.4593   -0.9895   -0.7823 C   0  0  0  0  0  0  0  0  0  0  0  0
   56.7523   -2.0754   -1.3893 C   0  0  0  0  0  0  0  0  0  0  0  0
   57.6688   -3.0344   -1.6639 C   0  0  0  0  0  0  0  0  0  0  0  0
   58.9233   -2.5553   -1.1680 C   0  0  0  0  0  0  0  0  0  0  0  0
   58.7822   -1.2925   -0.6419 N   0  0  0  0  0  0  0  0  0  0  0  0
   60.0676   -3.3209   -1.1127 C   0  0  0  0  0  0  0  0  0  0  0  0
   61.1877   -2.9472   -0.3971 C   0  0  0  0  0  0  0  0  0  0  0  0
   62.2784   -3.8284   -0.1005 C   0  0  0  0  0  0  0  0  0  0  0  0
   63.0992   -3.1607    0.7444 C   0  0  0  0  0  0  0  0  0  0  0  0
   62.5378   -1.8531    0.9169 C   0  0  0  0  0  0  0  0  0  0  0  0
   61.3607   -1.7390    0.2238 N   0  0  0  0  0  0  0  0  0  0  0  0
   64.1038   -1.0356    2.0935 H   0  0  0  0  0  0  0  0  0  0  0  0
   64.4589    1.5301    2.4743 H   0  0  0  0  0  0  0  0  0  0  0  0
   63.1069    3.7534    1.7270 H   0  0  0  0  0  0  0  0  0  0  0  0
   60.7654    4.1864    0.6457 H   0  0  0  0  0  0  0  0  0  0  0  0
   58.2388    4.5874    0.1253 H   0  0  0  0  0  0  0  0  0  0  0  0
   56.1133    2.9620   -0.2613 H   0  0  0  0  0  0  0  0  0  0  0  0
   55.6938   -2.0787   -1.5932 H   0  0  0  0  0  0  0  0  0  0  0  0
   57.5222   -3.9961   -2.1293 H   0  0  0  0  0  0  0  0  0  0  0  0
   60.0500   -4.3057   -1.5648 H   0  0  0  0  0  0  0  0  0  0  0  0
   62.3697   -4.8344   -0.4786 H   0  0  0  0  0  0  0  0  0  0  0  0
   64.0196   -3.4937    1.1976 H   0  0  0  0  0  0  0  0  0  0  0  0
   33.4891   -0.2202    0.3133 C   0  0  0  0  0  0  0  0  0  0  0  0
   34.6351   -0.4480    0.6608 C   0  0  0  0  0  0  0  0  0  0  0  0
   43.8651   -0.3041    0.5358 C   0  0  0  0  0  0  0  0  0  0  0  0
   44.9863   -0.0343    0.1375 C   0  0  0  0  0  0  0  0  0  0  0  0
   54.2829    0.5335   -0.7807 C   0  0  0  0  0  0  0  0  0  0  0  0
   55.4854    0.3996   -0.6393 C   0  0  0  0  0  0  0  0  0  0  0  0
   39.2742   -0.9682    1.4787 Co  0  0  0  0  0  0  0  0  0  0  0  0
   35.9673   -0.6845    1.0223 C   0  0  0  0  0  0  0  0  0  0  0  0
   36.5923    0.1629    1.9503 C   0  0  0  0  0  0  0  0  0  0  0  0
   35.8966    1.1049    2.7706 C   0  0  0  0  0  0  0  0  0  0  0  0
   36.7957    1.5830    3.6677 C   0  0  0  0  0  0  0  0  0  0  0  0
   38.0538    0.9833    3.3453 C   0  0  0  0  0  0  0  0  0  0  0  0
   37.9048    0.0949    2.3090 N   0  0  0  0  0  0  0  0  0  0  0  0
   39.2670    1.3777    3.8760 C   0  0  0  0  0  0  0  0  0  0  0  0
   40.4762    1.0374    3.3033 C   0  0  0  0  0  0  0  0  0  0  0  0
   41.7183    1.6926    3.5770 C   0  0  0  0  0  0  0  0  0  0  0  0
   42.6070    1.2408    2.6563 C   0  0  0  0  0  0  0  0  0  0  0  0
   40.6285    0.1442    2.2706 N   0  0  0  0  0  0  0  0  0  0  0  0
   41.9249    0.2591    1.8714 C   0  0  0  0  0  0  0  0  0  0  0  0
   42.5579   -0.5847    0.9444 C   0  0  0  0  0  0  0  0  0  0  0  0
   41.9445   -1.7776    0.5279 C   0  0  0  0  0  0  0  0  0  0  0  0
   42.6468   -2.8778   -0.0563 C   0  0  0  0  0  0  0  0  0  0  0  0
   41.7666   -3.9079   -0.1333 C   0  0  0  0  0  0  0  0  0  0  0  0
   40.5107   -3.4093    0.3371 C   0  0  0  0  0  0  0  0  0  0  0  0
   40.6465   -2.1108    0.7659 N   0  0  0  0  0  0  0  0  0  0  0  0
   39.3064   -4.0711    0.2056 C   0  0  0  0  0  0  0  0  0  0  0  0
   38.0874   -3.4338    0.3392 C   0  0  0  0  0  0  0  0  0  0  0  0
   36.8424   -3.9583   -0.1308 C   0  0  0  0  0  0  0  0  0  0  0  0
   35.9353   -2.9537   -0.0315 C   0  0  0  0  0  0  0  0  0  0  0  0
   36.6119   -1.8439    0.5645 C   0  0  0  0  0  0  0  0  0  0  0  0
   37.9228   -2.1453    0.7830 N   0  0  0  0  0  0  0  0  0  0  0  0
   34.8460    1.3320    2.6869 H   0  0  0  0  0  0  0  0  0  0  0  0
   36.6437    2.3033    4.4557 H   0  0  0  0  0  0  0  0  0  0  0  0
   39.2649    2.0936    4.6898 H   0  0  0  0  0  0  0  0  0  0  0  0
   41.8658    2.4284    4.3515 H   0  0  0  0  0  0  0  0  0  0  0  0
   43.6442    1.5094    2.5357 H   0  0  0  0  0  0  0  0  0  0  0  0
   43.6899   -2.8640   -0.3287 H   0  0  0  0  0  0  0  0  0  0  0  0
   41.9289   -4.9062   -0.5075 H   0  0  0  0  0  0  0  0  0  0  0  0
   39.3164   -5.0945   -0.1514 H   0  0  0  0  0  0  0  0  0  0  0  0
   36.7041   -4.9552   -0.5181 H   0  0  0  0  0  0  0  0  0  0  0  0
   34.8903   -2.9641   -0.2963 H   0  0  0  0  0  0  0  0  0  0  0  0
   49.5251    0.7695   -1.0676 Co  0  0  0  0  0  0  0  0  0  0  0  0
   46.2787    0.2630   -0.3071 C   0  0  0  0  0  0  0  0  0  0  0  0
   46.8875    1.4616    0.0955 C   0  0  0  0  0  0  0  0  0  0  0  0
   46.1938    2.5234    0.7565 C   0  0  0  0  0  0  0  0  0  0  0  0
   47.0518    3.5720    0.8190 C   0  0  0  0  0  0  0  0  0  0  0  0
   48.2878    3.1229    0.2546 C   0  0  0  0  0  0  0  0  0  0  0  0
   48.1614    1.8342   -0.2074 N   0  0  0  0  0  0  0  0  0  0  0  0
   49.4730    3.8244    0.3239 C   0  0  0  0  0  0  0  0  0  0  0  0
   50.7020    3.2495    0.0628 C   0  0  0  0  0  0  0  0  0  0  0  0
   51.9554    3.8276    0.4381 C   0  0  0  0  0  0  0  0  0  0  0  0
   52.9032    2.8875    0.1978 C   0  0  0  0  0  0  0  0  0  0  0  0
   50.8900    1.9917   -0.4529 N   0  0  0  0  0  0  0  0  0  0  0  0
   52.2342    1.7666   -0.3859 C   0  0  0  0  0  0  0  0  0  0  0  0
   52.8954    0.6670   -0.9473 C   0  0  0  0  0  0  0  0  0  0  0  0
   52.2224   -0.2221   -1.7965 C   0  0  0  0  0  0  0  0  0  0  0  0
   52.8829   -1.1247   -2.6876 C   0  0  0  0  0  0  0  0  0  0  0  0
   51.9235   -1.6690   -3.4769 C   0  0  0  0  0  0  0  0  0  0  0  0
   50.6738   -1.1427   -3.0223 C   0  0  0  0  0  0  0  0  0  0  0  0
   50.8754   -0.2391   -2.0083 N   0  0  0  0  0  0  0  0  0  0  0  0
   49.4407   -1.6077   -3.4356 C   0  0  0  0  0  0  0  0  0  0  0  0
   48.2688   -1.3159   -2.7694 C   0  0  0  0  0  0  0  0  0  0  0  0
   47.0378   -2.0212   -2.9545 C   0  0  0  0  0  0  0  0  0  0  0  0
   46.1913   -1.5834   -1.9894 C   0  0  0  0  0  0  0  0  0  0  0  0
   46.8863   -0.5667   -1.2616 C   0  0  0  0  0  0  0  0  0  0  0  0
   48.1528   -0.4147   -1.7380 N   0  0  0  0  0  0  0  0  0  0  0  0
   45.1702    2.4713    1.0909 H   0  0  0  0  0  0  0  0  0  0  0  0
   46.8897    4.5527    1.2369 H   0  0  0  0  0  0  0  0  0  0  0  0
   49.4518    4.8329    0.7206 H   0  0  0  0  0  0  0  0  0  0  0  0
   52.0736    4.8121    0.8621 H   0  0  0  0  0  0  0  0  0  0  0  0
   53.9660    2.9458    0.3683 H   0  0  0  0  0  0  0  0  0  0  0  0
   53.9486   -1.2833   -2.7205 H   0  0  0  0  0  0  0  0  0  0  0  0
   52.0329   -2.3861   -4.2749 H   0  0  0  0  0  0  0  0  0  0  0  0
   49.4085   -2.3317   -4.2416 H   0  0  0  0  0  0  0  0  0  0  0  0
   46.8706   -2.7745   -3.7078 H   0  0  0  0  0  0  0  0  0  0  0  0
   45.1738   -1.8853   -1.8004 H   0  0  0  0  0  0  0  0  0  0  0  0
  2  3  4  0  0  0  0
  3  4  1  0  0  0  0
  4  5  2  0  0  0  0
  5  6  1  0  0  0  0
  1  7  1  0  0  0  0
  3  7  4  0  0  0  0
  6  7  4  0  0  0  0
  6  8  4  0  0  0  0
  8  9  4  0  0  0  0
  9 10  1  0  0  0  0
 10 11  2  0  0  0  0
  1 12  1  0  0  0  0
  9 12  4  0  0  0  0
 11 13  4  0  0  0  0
 12 13  4  0  0  0  0
 13 14  4  0  0  0  0
 14 15  4  0  0  0  0
 15 16  4  0  0  0  0
 16 17  2  0  0  0  0
 17 18  1  0  0  0  0
  1 19  1  0  0  0  0
 15 19  4  0  0  0  0
 18 19  4  0  0  0  0
 18 20  4  0  0  0  0
 20 21  4  0  0  0  0
 21 22  1  0  0  0  0
 22 23  2  0  0  0  0
  2 24  4  0  0  0  0
 23 24  1  0  0  0  0
  1 25  1  0  0  0  0
 21 25  4  0  0  0  0
 24 25  4  0  0  0  0
  2 26  1  0  0  0  0
  4 27  1  0  0  0  0
  5 28  1  0  0  0  0
  8 29  1  0  0  0  0
 10 30  1  0  0  0  0
 11 31  1  0  0  0  0
 16 32  1  0  0  0  0
 17 33  1  0  0  0  0
 20 34  1  0  0  0  0
 22 35  1  0  0  0  0
 23 36  1  0  0  0  0
 38 39  4  0  0  0  0
 39 40  1  0  0  0  0
 40 41  2  0  0  0  0
 41 42  1  0  0  0  0
 37 43  1  0  0  0  0
 39 43  4  0  0  0  0
 42 43  4  0  0  0  0
 42 44  4  0  0  0  0
 44 45  4  0  0  0  0
 45 46  1  0  0  0  0
 46 47  2  0  0  0  0
 37 48  1  0  0  0  0
 45 48  4  0  0  0  0
 47 49  4  0  0  0  0
 48 49  4  0  0  0  0
 49 50  4  0  0  0  0
 50 51  4  0  0  0  0
 51 52  4  0  0  0  0
 52 53  2  0  0  0  0
 53 54  1  0  0  0  0
 37 55  1  0  0  0  0
 51 55  4  0  0  0  0
 54 55  4  0  0  0  0
 54 56  4  0  0  0  0
 56 57  4  0  0  0  0
 57 58  1  0  0  0  0
 58 59  2  0  0  0  0
 38 60  4  0  0  0  0
 59 60  1  0  0  0  0
 37 61  1  0  0  0  0
 57 61  4  0  0  0  0
 60 61  4  0  0  0  0
 38 62  1  0  0  0  0
 40 63  1  0  0  0  0
 41 64  1  0  0  0  0
 44 65  1  0  0  0  0
 46 66  1  0  0  0  0
 47 67  1  0  0  0  0
 52 68  1  0  0  0  0
 53 69  1  0  0  0  0
 56 70  1  0  0  0  0
 58 71  1  0  0  0  0
 59 72  1  0  0  0  0
 14 73  4  0  0  0  0
 73 74  3  0  0  0  0
 75 76  3  0  0  0  0
 50 78  1  0  0  0  0
 77 78  3  0  0  0  0
 74 80  4  0  0  0  0
 80 81  4  0  0  0  0
 81 82  4  0  0  0  0
 82 83  2  0  0  0  0
 83 84  4  0  0  0  0
 79 85  1  0  0  0  0
 81 85  4  0  0  0  0
 84 85  4  0  0  0  0
 84 86  4  0  0  0  0
 86 87  4  0  0  0  0
 87 88  4  0  0  0  0
 88 89  2  0  0  0  0
 79 90  1  0  0  0  0
 87 90  4  0  0  0  0
 89 91  4  0  0  0  0
 90 91  4  0  0  0  0
 75 92  4  0  0  0  0
 91 92  4  0  0  0  0
 92 93  4  0  0  0  0
 93 94  4  0  0  0  0
 94 95  2  0  0  0  0
 95 96  4  0  0  0  0
 79 97  1  0  0  0  0
 93 97  4  0  0  0  0
 96 97  4  0  0  0  0
 96 98  4  0  0  0  0
 98 99  4  0  0  0  0
 99100  4  0  0  0  0
100101  2  0  0  0  0
 80102  4  0  0  0  0
101102  4  0  0  0  0
 79103  1  0  0  0  0
 99103  4  0  0  0  0
102103  4  0  0  0  0
 82104  1  0  0  0  0
 83105  1  0  0  0  0
 86106  1  0  0  0  0
 88107  1  0  0  0  0
 89108  1  0  0  0  0
 94109  1  0  0  0  0
 95110  1  0  0  0  0
 98111  1  0  0  0  0
100112  1  0  0  0  0
101113  1  0  0  0  0
 76115  4  0  0  0  0
115116  4  0  0  0  0
116117  4  0  0  0  0
117118  2  0  0  0  0
118119  4  0  0  0  0
114120  1  0  0  0  0
116120  4  0  0  0  0
119120  4  0  0  0  0
119121  4  0  0  0  0
121122  4  0  0  0  0
122123  4  0  0  0  0
123124  2  0  0  0  0
114125  1  0  0  0  0
122125  4  0  0  0  0
124126  4  0  0  0  0
125126  4  0  0  0  0
 77127  4  0  0  0  0
126127  4  0  0  0  0
127128  4  0  0  0  0
128129  4  0  0  0  0
129130  2  0  0  0  0
130131  4  0  0  0  0
114132  1  0  0  0  0
128132  4  0  0  0  0
131132  4  0  0  0  0
131133  4  0  0  0  0
133134  4  0  0  0  0
134135  4  0  0  0  0
135136  2  0  0  0  0
115137  4  0  0  0  0
136137  4  0  0  0  0
114138  1  0  0  0  0
134138  4  0  0  0  0
137138  4  0  0  0  0
117139  1  0  0  0  0
118140  1  0  0  0  0
121141  1  0  0  0  0
123142  1  0  0  0  0
124143  1  0  0  0  0
129144  1  0  0  0  0
130145  1  0  0  0  0
133146  1  0  0  0  0
135147  1  0  0  0  0
136148  1  0  0  0  0
M  END
