 xtb: 6.5.1 (b24c23e)
          07302205143D

238277  0     0  0            999 V2000
   29.3716   -0.0169   -0.0097 Cu  0  0  0  0  0  0  0  0  0  0  0  0
   25.9650   -0.0526   -0.0365 C   0  0  0  0  0  0  0  0  0  0  0  0
   26.6012   -1.2787    0.0852 C   0  0  0  0  0  0  0  0  0  0  0  0
   25.9269   -2.5375    0.2266 C   0  0  0  0  0  0  0  0  0  0  0  0
   26.8863   -3.4892    0.3376 C   0  0  0  0  0  0  0  0  0  0  0  0
   28.1564   -2.8202    0.2574 C   0  0  0  0  0  0  0  0  0  0  0  0
   27.9522   -1.4786    0.1093 N   0  0  0  0  0  0  0  0  0  0  0  0
   29.4012   -3.4459    0.3553 C   0  0  0  0  0  0  0  0  0  0  0  0
   29.4137   -4.9212    0.5099 C   0  0  0  0  0  0  0  0  0  0  0  0
   29.9231   -5.5255    1.6583 C   0  0  0  0  0  0  0  0  0  0  0  0
   29.9102   -6.9080    1.7565 C   0  0  0  0  0  0  0  0  0  0  0  0
   29.4367   -7.6980    0.7983 N   0  0  0  0  0  0  0  0  0  0  0  0
   28.9521   -7.1297   -0.3011 C   0  0  0  0  0  0  0  0  0  0  0  0
   28.9161   -5.7570   -0.4888 C   0  0  0  0  0  0  0  0  0  0  0  0
   30.6339   -2.7925    0.3177 C   0  0  0  0  0  0  0  0  0  0  0  0
   31.9115   -3.4442    0.3787 C   0  0  0  0  0  0  0  0  0  0  0  0
   32.8572   -2.4755    0.2856 C   0  0  0  0  0  0  0  0  0  0  0  0
   30.8218   -1.4425    0.1792 N   0  0  0  0  0  0  0  0  0  0  0  0
   32.1654   -1.2279    0.1593 C   0  0  0  0  0  0  0  0  0  0  0  0
   32.8011    0.0179    0.0147 C   0  0  0  0  0  0  0  0  0  0  0  0
   32.1419    1.2506   -0.1348 C   0  0  0  0  0  0  0  0  0  0  0  0
   32.8097    2.5051   -0.3105 C   0  0  0  0  0  0  0  0  0  0  0  0
   31.8458    3.4541   -0.4194 C   0  0  0  0  0  0  0  0  0  0  0  0
   30.5810    2.7851   -0.3026 C   0  0  0  0  0  0  0  0  0  0  0  0
   30.7944    1.4416   -0.1402 N   0  0  0  0  0  0  0  0  0  0  0  0
   29.3357    3.4125   -0.3714 C   0  0  0  0  0  0  0  0  0  0  0  0
   29.3203    4.8876   -0.5231 C   0  0  0  0  0  0  0  0  0  0  0  0
   28.7584    5.4949   -1.6455 C   0  0  0  0  0  0  0  0  0  0  0  0
   28.7678    6.8775   -1.7420 C   0  0  0  0  0  0  0  0  0  0  0  0
   29.2874    7.6654   -0.8062 N   0  0  0  0  0  0  0  0  0  0  0  0
   29.8236    7.0948    0.2678 C   0  0  0  0  0  0  0  0  0  0  0  0
   29.8655    5.7218    0.4521 C   0  0  0  0  0  0  0  0  0  0  0  0
   28.1026    2.7594   -0.3076 C   0  0  0  0  0  0  0  0  0  0  0  0
   26.8199    3.4086   -0.3337 C   0  0  0  0  0  0  0  0  0  0  0  0
   25.8791    2.4364   -0.2434 C   0  0  0  0  0  0  0  0  0  0  0  0
   26.5774    1.1861   -0.1517 C   0  0  0  0  0  0  0  0  0  0  0  0
   27.9242    1.4114   -0.1864 N   0  0  0  0  0  0  0  0  0  0  0  0
   24.8800   -0.0627   -0.0321 H   0  0  0  0  0  0  0  0  0  0  0  0
   24.8556   -2.6616    0.2437 H   0  0  0  0  0  0  0  0  0  0  0  0
   26.7537   -4.5504    0.4738 H   0  0  0  0  0  0  0  0  0  0  0  0
   30.3102   -4.9207    2.4696 H   0  0  0  0  0  0  0  0  0  0  0  0
   30.2976   -7.4017    2.6430 H   0  0  0  0  0  0  0  0  0  0  0  0
   28.5744   -7.8014   -1.0665 H   0  0  0  0  0  0  0  0  0  0  0  0
   28.5207   -5.3382   -1.4065 H   0  0  0  0  0  0  0  0  0  0  0  0
   32.0615   -4.5079    0.4686 H   0  0  0  0  0  0  0  0  0  0  0  0
   33.9297   -2.5866    0.2941 H   0  0  0  0  0  0  0  0  0  0  0  0
   33.8796    2.6325   -0.3504 H   0  0  0  0  0  0  0  0  0  0  0  0
   31.9756    4.5124   -0.5779 H   0  0  0  0  0  0  0  0  0  0  0  0
   28.3341    4.8920   -2.4396 H   0  0  0  0  0  0  0  0  0  0  0  0
   28.3396    7.3729   -2.6085 H   0  0  0  0  0  0  0  0  0  0  0  0
   30.2381    7.7647    1.0155 H   0  0  0  0  0  0  0  0  0  0  0  0
   30.3022    5.3014    1.3502 H   0  0  0  0  0  0  0  0  0  0  0  0
   26.6663    4.4736   -0.4002 H   0  0  0  0  0  0  0  0  0  0  0  0
   24.8058    2.5425   -0.2316 H   0  0  0  0  0  0  0  0  0  0  0  0
   85.2032    0.0253   -0.0200 Cu  0  0  0  0  0  0  0  0  0  0  0  0
   88.6095    0.0433   -0.0700 C   0  0  0  0  0  0  0  0  0  0  0  0
   87.9755    1.2534   -0.3069 C   0  0  0  0  0  0  0  0  0  0  0  0
   88.6520    2.4978   -0.5373 C   0  0  0  0  0  0  0  0  0  0  0  0
   87.6944    3.4433   -0.7031 C   0  0  0  0  0  0  0  0  0  0  0  0
   86.4230    2.7824   -0.5844 C   0  0  0  0  0  0  0  0  0  0  0  0
   86.6248    1.4549   -0.3381 N   0  0  0  0  0  0  0  0  0  0  0  0
   85.1792    3.4114   -0.6733 C   0  0  0  0  0  0  0  0  0  0  0  0
   85.1684    4.8689   -0.9491 C   0  0  0  0  0  0  0  0  0  0  0  0
   84.6549    5.7768   -0.0242 C   0  0  0  0  0  0  0  0  0  0  0  0
   84.6698    7.1296   -0.3254 C   0  0  0  0  0  0  0  0  0  0  0  0
   85.1492    7.6122   -1.4672 N   0  0  0  0  0  0  0  0  0  0  0  0
   85.6376    6.7530   -2.3558 C   0  0  0  0  0  0  0  0  0  0  0  0
   85.6719    5.3839   -2.1429 C   0  0  0  0  0  0  0  0  0  0  0  0
   83.9454    2.7763   -0.5234 C   0  0  0  0  0  0  0  0  0  0  0  0
   82.6689    3.4183   -0.6617 C   0  0  0  0  0  0  0  0  0  0  0  0
   81.7215    2.4659   -0.4694 C   0  0  0  0  0  0  0  0  0  0  0  0
   83.7553    1.4454   -0.2599 N   0  0  0  0  0  0  0  0  0  0  0  0
   82.4113    1.2360   -0.2192 C   0  0  0  0  0  0  0  0  0  0  0  0
   81.7738    0.0053    0.0173 C   0  0  0  0  0  0  0  0  0  0  0  0
   82.4312   -1.2162    0.2461 C   0  0  0  0  0  0  0  0  0  0  0  0
   81.7612   -2.4643    0.4561 C   0  0  0  0  0  0  0  0  0  0  0  0
   82.7235   -3.4048    0.6319 C   0  0  0  0  0  0  0  0  0  0  0  0
   83.9896   -2.7346    0.5379 C   0  0  0  0  0  0  0  0  0  0  0  0
   83.7784   -1.4033    0.2931 N   0  0  0  0  0  0  0  0  0  0  0  0
   85.2338   -3.3575    0.6511 C   0  0  0  0  0  0  0  0  0  0  0  0
   85.2469   -4.8111    0.9443 C   0  0  0  0  0  0  0  0  0  0  0  0
   85.8016   -5.7259    0.0499 C   0  0  0  0  0  0  0  0  0  0  0  0
   85.7906   -7.0747    0.3685 C   0  0  0  0  0  0  0  0  0  0  0  0
   85.2759   -7.5478    1.4990 N   0  0  0  0  0  0  0  0  0  0  0  0
   84.7465   -6.6825    2.3578 C   0  0  0  0  0  0  0  0  0  0  0  0
   84.7068   -5.3166    2.1263 C   0  0  0  0  0  0  0  0  0  0  0  0
   86.4679   -2.7185    0.5099 C   0  0  0  0  0  0  0  0  0  0  0  0
   87.7499   -3.3500    0.6685 C   0  0  0  0  0  0  0  0  0  0  0  0
   88.6920   -2.3971    0.4616 C   0  0  0  0  0  0  0  0  0  0  0  0
   87.9954   -1.1735    0.1850 C   0  0  0  0  0  0  0  0  0  0  0  0
   86.6481   -1.3954    0.2261 N   0  0  0  0  0  0  0  0  0  0  0  0
   89.6946    0.0514   -0.0737 H   0  0  0  0  0  0  0  0  0  0  0  0
   89.7235    2.6191   -0.5595 H   0  0  0  0  0  0  0  0  0  0  0  0
   87.8291    4.4983   -0.8792 H   0  0  0  0  0  0  0  0  0  0  0  0
   84.2629    5.4295    0.9244 H   0  0  0  0  0  0  0  0  0  0  0  0
   84.2792    7.8564    0.3809 H   0  0  0  0  0  0  0  0  0  0  0  0
   86.0202    7.1775   -3.2794 H   0  0  0  0  0  0  0  0  0  0  0  0
   86.0705    4.7199   -2.9006 H   0  0  0  0  0  0  0  0  0  0  0  0
   82.5207    4.4614   -0.8895 H   0  0  0  0  0  0  0  0  0  0  0  0
   80.6493    2.5755   -0.4979 H   0  0  0  0  0  0  0  0  0  0  0  0
   80.6910   -2.5952    0.4602 H   0  0  0  0  0  0  0  0  0  0  0  0
   82.5918   -4.4618    0.7972 H   0  0  0  0  0  0  0  0  0  0  0  0
   86.2215   -5.3871   -0.8898 H   0  0  0  0  0  0  0  0  0  0  0  0
   86.2134   -7.8062   -0.3139 H   0  0  0  0  0  0  0  0  0  0  0  0
   84.3358   -7.0991    3.2729 H   0  0  0  0  0  0  0  0  0  0  0  0
   84.2757   -4.6474    2.8614 H   0  0  0  0  0  0  0  0  0  0  0  0
   87.9023   -4.3875    0.9188 H   0  0  0  0  0  0  0  0  0  0  0  0
   89.7653   -2.4980    0.4975 H   0  0  0  0  0  0  0  0  0  0  0  0
   34.2069    0.0289    0.0097 C   0  0  0  0  0  0  0  0  0  0  0  0
   35.4312    0.0335    0.0052 C   0  0  0  0  0  0  0  0  0  0  0  0
   36.7741    0.0375   -0.0041 C   0  0  0  0  0  0  0  0  0  0  0  0
   38.0045    0.0355   -0.0122 C   0  0  0  0  0  0  0  0  0  0  0  0
   39.3426    0.0323   -0.0208 C   0  0  0  0  0  0  0  0  0  0  0  0
   40.5731    0.0286   -0.0303 C   0  0  0  0  0  0  0  0  0  0  0  0
   41.9157    0.0231   -0.0389 C   0  0  0  0  0  0  0  0  0  0  0  0
   43.1403    0.0194   -0.0453 C   0  0  0  0  0  0  0  0  0  0  0  0
   52.8213    0.0219   -0.0248 C   0  0  0  0  0  0  0  0  0  0  0  0
   54.0460    0.0229   -0.0216 C   0  0  0  0  0  0  0  0  0  0  0  0
   55.3882    0.0212   -0.0195 C   0  0  0  0  0  0  0  0  0  0  0  0
   56.6191    0.0207   -0.0194 C   0  0  0  0  0  0  0  0  0  0  0  0
   57.9565    0.0169   -0.0193 C   0  0  0  0  0  0  0  0  0  0  0  0
   59.1874    0.0117   -0.0219 C   0  0  0  0  0  0  0  0  0  0  0  0
   60.5296    0.0092   -0.0243 C   0  0  0  0  0  0  0  0  0  0  0  0
   61.7543    0.0047   -0.0290 C   0  0  0  0  0  0  0  0  0  0  0  0
   71.4348   -0.0063   -0.0305 C   0  0  0  0  0  0  0  0  0  0  0  0
   72.6594   -0.0081   -0.0225 C   0  0  0  0  0  0  0  0  0  0  0  0
   74.0020   -0.0087   -0.0145 C   0  0  0  0  0  0  0  0  0  0  0  0
   75.2325   -0.0135   -0.0062 C   0  0  0  0  0  0  0  0  0  0  0  0
   76.5705   -0.0110    0.0030 C   0  0  0  0  0  0  0  0  0  0  0  0
   77.8010   -0.0129    0.0108 C   0  0  0  0  0  0  0  0  0  0  0  0
   79.1438   -0.0097    0.0157 C   0  0  0  0  0  0  0  0  0  0  0  0
   80.3682   -0.0058    0.0160 C   0  0  0  0  0  0  0  0  0  0  0  0
   47.9812    0.0127   -0.0444 Cu  0  0  0  0  0  0  0  0  0  0  0  0
   44.5453    0.0152   -0.0484 C   0  0  0  0  0  0  0  0  0  0  0  0
   45.1922   -0.8687    0.8341 C   0  0  0  0  0  0  0  0  0  0  0  0
   44.5125   -1.7297    1.7546 C   0  0  0  0  0  0  0  0  0  0  0  0
   45.4672   -2.4267    2.4216 C   0  0  0  0  0  0  0  0  0  0  0  0
   46.7367   -2.0000    1.9058 C   0  0  0  0  0  0  0  0  0  0  0  0
   46.5365   -1.0452    0.9448 N   0  0  0  0  0  0  0  0  0  0  0  0
   47.9765   -2.4738    2.3395 C   0  0  0  0  0  0  0  0  0  0  0  0
   47.9731   -3.5459    3.3643 C   0  0  0  0  0  0  0  0  0  0  0  0
   47.4047   -4.7926    3.1053 C   0  0  0  0  0  0  0  0  0  0  0  0
   47.4260   -5.7635    4.0940 C   0  0  0  0  0  0  0  0  0  0  0  0
   47.9622   -5.5639    5.2937 N   0  0  0  0  0  0  0  0  0  0  0  0
   48.5042   -4.3776    5.5496 C   0  0  0  0  0  0  0  0  0  0  0  0
   48.5363   -3.3464    4.6241 C   0  0  0  0  0  0  0  0  0  0  0  0
   49.2181   -2.0214    1.8890 C   0  0  0  0  0  0  0  0  0  0  0  0
   50.4861   -2.5546    2.2985 C   0  0  0  0  0  0  0  0  0  0  0  0
   51.4434   -1.8570    1.6356 C   0  0  0  0  0  0  0  0  0  0  0  0
   49.4220   -1.0200    0.9772 N   0  0  0  0  0  0  0  0  0  0  0  0
   50.7668   -0.9008    0.8119 C   0  0  0  0  0  0  0  0  0  0  0  0
   51.4168    0.0195   -0.0304 C   0  0  0  0  0  0  0  0  0  0  0  0
   50.7697    0.9362   -0.8789 C   0  0  0  0  0  0  0  0  0  0  0  0
   51.4487    1.8940   -1.6986 C   0  0  0  0  0  0  0  0  0  0  0  0
   50.4940    2.5835   -2.3735 C   0  0  0  0  0  0  0  0  0  0  0  0
   49.2251    2.0445   -1.9746 C   0  0  0  0  0  0  0  0  0  0  0  0
   49.4258    1.0477   -1.0570 N   0  0  0  0  0  0  0  0  0  0  0  0
   47.9855    2.4889   -2.4387 C   0  0  0  0  0  0  0  0  0  0  0  0
   47.9882    3.5518   -3.4730 C   0  0  0  0  0  0  0  0  0  0  0  0
   48.5655    3.3419   -4.7247 C   0  0  0  0  0  0  0  0  0  0  0  0
   48.5409    4.3641   -5.6603 C   0  0  0  0  0  0  0  0  0  0  0  0
   47.9932    5.5514   -5.4215 N   0  0  0  0  0  0  0  0  0  0  0  0
   47.4434    5.7608   -4.2297 C   0  0  0  0  0  0  0  0  0  0  0  0
   47.4138    4.7992   -3.2320 C   0  0  0  0  0  0  0  0  0  0  0  0
   46.7440    2.0160   -2.0092 C   0  0  0  0  0  0  0  0  0  0  0  0
   45.4763    2.4396   -2.5321 C   0  0  0  0  0  0  0  0  0  0  0  0
   44.5190    1.7496   -1.8615 C   0  0  0  0  0  0  0  0  0  0  0  0
   45.1952    0.8942   -0.9334 C   0  0  0  0  0  0  0  0  0  0  0  0
   46.5400    1.0679   -1.0422 N   0  0  0  0  0  0  0  0  0  0  0  0
   43.4422   -1.7817    1.8735 H   0  0  0  0  0  0  0  0  0  0  0  0
   45.3282   -3.1557    3.2034 H   0  0  0  0  0  0  0  0  0  0  0  0
   46.9659   -5.0035    2.1373 H   0  0  0  0  0  0  0  0  0  0  0  0
   46.9934   -6.7434    3.9144 H   0  0  0  0  0  0  0  0  0  0  0  0
   48.9319   -4.2444    6.5390 H   0  0  0  0  0  0  0  0  0  0  0  0
   48.9789   -2.3913    4.8809 H   0  0  0  0  0  0  0  0  0  0  0  0
   50.6226   -3.3672    2.9934 H   0  0  0  0  0  0  0  0  0  0  0  0
   52.5136   -1.9773    1.6874 H   0  0  0  0  0  0  0  0  0  0  0  0
   52.5187    2.0207   -1.7400 H   0  0  0  0  0  0  0  0  0  0  0  0
   50.6326    3.3948   -3.0696 H   0  0  0  0  0  0  0  0  0  0  0  0
   49.0136    2.3857   -4.9675 H   0  0  0  0  0  0  0  0  0  0  0  0
   48.9799    4.2228   -6.6436 H   0  0  0  0  0  0  0  0  0  0  0  0
   47.0065    6.7412   -4.0640 H   0  0  0  0  0  0  0  0  0  0  0  0
   46.9643    5.0184   -2.2708 H   0  0  0  0  0  0  0  0  0  0  0  0
   45.3401    3.1621   -3.3204 H   0  0  0  0  0  0  0  0  0  0  0  0
   43.4489    1.8020   -1.9834 H   0  0  0  0  0  0  0  0  0  0  0  0
   66.5941   -0.0030   -0.0334 Cu  0  0  0  0  0  0  0  0  0  0  0  0
   63.1587    0.0018   -0.0313 C   0  0  0  0  0  0  0  0  0  0  0  0
   63.8068   -0.8763    0.8564 C   0  0  0  0  0  0  0  0  0  0  0  0
   63.1285   -1.7299    1.7846 C   0  0  0  0  0  0  0  0  0  0  0  0
   64.0839   -2.4264    2.4514 C   0  0  0  0  0  0  0  0  0  0  0  0
   65.3524   -2.0071    1.9273 C   0  0  0  0  0  0  0  0  0  0  0  0
   65.1509   -1.0558    0.9627 N   0  0  0  0  0  0  0  0  0  0  0  0
   66.5925   -2.4859    2.3543 C   0  0  0  0  0  0  0  0  0  0  0  0
   66.5925   -3.5539    3.3833 C   0  0  0  0  0  0  0  0  0  0  0  0
   66.0163   -4.7991    3.1353 C   0  0  0  0  0  0  0  0  0  0  0  0
   66.0450   -5.7665    4.1275 C   0  0  0  0  0  0  0  0  0  0  0  0
   66.5955   -5.5647    5.3202 N   0  0  0  0  0  0  0  0  0  0  0  0
   67.1443   -4.3793    5.5659 C   0  0  0  0  0  0  0  0  0  0  0  0
   67.1699   -3.3517    4.6363 C   0  0  0  0  0  0  0  0  0  0  0  0
   67.8334   -2.0419    1.8930 C   0  0  0  0  0  0  0  0  0  0  0  0
   69.1012   -2.5827    2.2930 C   0  0  0  0  0  0  0  0  0  0  0  0
   70.0577   -1.8896    1.6245 C   0  0  0  0  0  0  0  0  0  0  0  0
   68.0364   -1.0414    0.9803 N   0  0  0  0  0  0  0  0  0  0  0  0
   69.3808   -0.9285    0.8069 C   0  0  0  0  0  0  0  0  0  0  0  0
   70.0300   -0.0060   -0.0334 C   0  0  0  0  0  0  0  0  0  0  0  0
   69.3822    0.9164   -0.8748 C   0  0  0  0  0  0  0  0  0  0  0  0
   70.0608    1.8760   -1.6929 C   0  0  0  0  0  0  0  0  0  0  0  0
   69.1054    2.5707   -2.3615 C   0  0  0  0  0  0  0  0  0  0  0  0
   67.8366    2.0326   -1.9610 C   0  0  0  0  0  0  0  0  0  0  0  0
   68.0379    1.0317   -1.0481 N   0  0  0  0  0  0  0  0  0  0  0  0
   66.5964    2.4790   -2.4218 C   0  0  0  0  0  0  0  0  0  0  0  0
   66.5976    3.5469   -3.4511 C   0  0  0  0  0  0  0  0  0  0  0  0
   67.1740    3.3434   -4.7043 C   0  0  0  0  0  0  0  0  0  0  0  0
   67.1485    4.3704   -5.6346 C   0  0  0  0  0  0  0  0  0  0  0  0
   66.6009    5.5564   -5.3894 N   0  0  0  0  0  0  0  0  0  0  0  0
   66.0516    5.7595   -4.1962 C   0  0  0  0  0  0  0  0  0  0  0  0
   66.0228    4.7928   -3.2035 C   0  0  0  0  0  0  0  0  0  0  0  0
   65.3555    2.0029   -1.9943 C   0  0  0  0  0  0  0  0  0  0  0  0
   64.0876    2.4240   -2.5186 C   0  0  0  0  0  0  0  0  0  0  0  0
   63.1310    1.7307   -1.8502 C   0  0  0  0  0  0  0  0  0  0  0  0
   63.8079    0.8771   -0.9210 C   0  0  0  0  0  0  0  0  0  0  0  0
   65.1524    1.0533   -1.0286 N   0  0  0  0  0  0  0  0  0  0  0  0
   62.0585   -1.7778    1.9086 H   0  0  0  0  0  0  0  0  0  0  0  0
   63.9460   -3.1505    3.2379 H   0  0  0  0  0  0  0  0  0  0  0  0
   65.5662   -5.0122    2.1730 H   0  0  0  0  0  0  0  0  0  0  0  0
   65.6071   -6.7455    3.9562 H   0  0  0  0  0  0  0  0  0  0  0  0
   67.5837   -4.2442    6.5499 H   0  0  0  0  0  0  0  0  0  0  0  0
   67.6190   -2.3973    4.8844 H   0  0  0  0  0  0  0  0  0  0  0  0
   69.2379   -3.3969    2.9861 H   0  0  0  0  0  0  0  0  0  0  0  0
   71.1276   -2.0159    1.6689 H   0  0  0  0  0  0  0  0  0  0  0  0
   71.1310    1.9996   -1.7379 H   0  0  0  0  0  0  0  0  0  0  0  0
   69.2434    3.3845   -3.0547 H   0  0  0  0  0  0  0  0  0  0  0  0
   67.6219    2.3885   -4.9522 H   0  0  0  0  0  0  0  0  0  0  0  0
   67.5868    4.2341   -6.6189 H   0  0  0  0  0  0  0  0  0  0  0  0
   65.6147    6.7391   -4.0254 H   0  0  0  0  0  0  0  0  0  0  0  0
   65.5736    5.0070   -2.2410 H   0  0  0  0  0  0  0  0  0  0  0  0
   63.9508    3.1470   -3.3063 H   0  0  0  0  0  0  0  0  0  0  0  0
   62.0610    1.7804   -1.9740 H   0  0  0  0  0  0  0  0  0  0  0  0
  2  3  4  0  0  0  0
  3  4  1  0  0  0  0
  4  5  2  0  0  0  0
  5  6  4  0  0  0  0
  1  7  1  0  0  0  0
  3  7  4  0  0  0  0
  6  7  4  0  0  0  0
  6  8  4  0  0  0  0
  8  9  1  0  0  0  0
  9 10  4  0  0  0  0
 10 11  4  0  0  0  0
 11 12  4  0  0  0  0
 12 13  4  0  0  0  0
  9 14  4  0  0  0  0
 13 14  4  0  0  0  0
  8 15  4  0  0  0  0
 15 16  4  0  0  0  0
 16 17  2  0  0  0  0
  1 18  1  0  0  0  0
 15 18  4  0  0  0  0
 17 19  4  0  0  0  0
 18 19  4  0  0  0  0
 19 20  4  0  0  0  0
 20 21  4  0  0  0  0
 21 22  4  0  0  0  0
 22 23  2  0  0  0  0
 23 24  4  0  0  0  0
  1 25  1  0  0  0  0
 21 25  4  0  0  0  0
 24 25  4  0  0  0  0
 24 26  4  0  0  0  0
 26 27  1  0  0  0  0
 27 28  4  0  0  0  0
 28 29  4  0  0  0  0
 29 30  4  0  0  0  0
 30 31  4  0  0  0  0
 27 32  4  0  0  0  0
 31 32  4  0  0  0  0
 26 33  4  0  0  0  0
 33 34  4  0  0  0  0
 34 35  2  0  0  0  0
  2 36  4  0  0  0  0
 35 36  1  0  0  0  0
  1 37  1  0  0  0  0
 33 37  4  0  0  0  0
 36 37  4  0  0  0  0
  2 38  1  0  0  0  0
  4 39  1  0  0  0  0
  5 40  1  0  0  0  0
 10 41  1  0  0  0  0
 11 42  1  0  0  0  0
 13 43  1  0  0  0  0
 14 44  1  0  0  0  0
 16 45  1  0  0  0  0
 17 46  1  0  0  0  0
 22 47  1  0  0  0  0
 23 48  1  0  0  0  0
 28 49  1  0  0  0  0
 29 50  1  0  0  0  0
 31 51  1  0  0  0  0
 32 52  1  0  0  0  0
 34 53  1  0  0  0  0
 35 54  1  0  0  0  0
 56 57  4  0  0  0  0
 57 58  1  0  0  0  0
 58 59  2  0  0  0  0
 59 60  4  0  0  0  0
 55 61  1  0  0  0  0
 57 61  4  0  0  0  0
 60 61  4  0  0  0  0
 60 62  4  0  0  0  0
 62 63  1  0  0  0  0
 63 64  4  0  0  0  0
 64 65  4  0  0  0  0
 65 66  4  0  0  0  0
 66 67  4  0  0  0  0
 63 68  4  0  0  0  0
 67 68  4  0  0  0  0
 62 69  4  0  0  0  0
 69 70  4  0  0  0  0
 70 71  2  0  0  0  0
 55 72  1  0  0  0  0
 69 72  4  0  0  0  0
 71 73  4  0  0  0  0
 72 73  4  0  0  0  0
 73 74  4  0  0  0  0
 74 75  4  0  0  0  0
 75 76  4  0  0  0  0
 76 77  2  0  0  0  0
 77 78  4  0  0  0  0
 55 79  1  0  0  0  0
 75 79  4  0  0  0  0
 78 79  4  0  0  0  0
 78 80  4  0  0  0  0
 80 81  1  0  0  0  0
 81 82  4  0  0  0  0
 82 83  4  0  0  0  0
 83 84  4  0  0  0  0
 84 85  4  0  0  0  0
 81 86  4  0  0  0  0
 85 86  4  0  0  0  0
 80 87  4  0  0  0  0
 87 88  4  0  0  0  0
 88 89  2  0  0  0  0
 56 90  4  0  0  0  0
 89 90  1  0  0  0  0
 55 91  1  0  0  0  0
 87 91  4  0  0  0  0
 90 91  4  0  0  0  0
 56 92  1  0  0  0  0
 58 93  1  0  0  0  0
 59 94  1  0  0  0  0
 64 95  1  0  0  0  0
 65 96  1  0  0  0  0
 67 97  1  0  0  0  0
 68 98  1  0  0  0  0
 70 99  1  0  0  0  0
 71100  1  0  0  0  0
 76101  1  0  0  0  0
 77102  1  0  0  0  0
 82103  1  0  0  0  0
 83104  1  0  0  0  0
 85105  1  0  0  0  0
 86106  1  0  0  0  0
 88107  1  0  0  0  0
 89108  1  0  0  0  0
 20109  4  0  0  0  0
109110  3  0  0  0  0
110111  4  0  0  0  0
111112  3  0  0  0  0
112113  4  0  0  0  0
113114  3  0  0  0  0
114115  4  0  0  0  0
115116  3  0  0  0  0
117118  3  0  0  0  0
118119  4  0  0  0  0
119120  3  0  0  0  0
120121  4  0  0  0  0
121122  3  0  0  0  0
122123  4  0  0  0  0
123124  3  0  0  0  0
125126  3  0  0  0  0
126127  4  0  0  0  0
127128  3  0  0  0  0
128129  4  0  0  0  0
129130  3  0  0  0  0
130131  4  0  0  0  0
 74132  4  0  0  0  0
131132  3  0  0  0  0
116134  4  0  0  0  0
134135  4  0  0  0  0
135136  4  0  0  0  0
136137  2  0  0  0  0
137138  4  0  0  0  0
133139  1  0  0  0  0
135139  4  0  0  0  0
138139  4  0  0  0  0
138140  4  0  0  0  0
140141  1  0  0  0  0
141142  4  0  0  0  0
142143  4  0  0  0  0
143144  4  0  0  0  0
144145  4  0  0  0  0
141146  4  0  0  0  0
145146  4  0  0  0  0
140147  4  0  0  0  0
147148  4  0  0  0  0
148149  2  0  0  0  0
133150  1  0  0  0  0
147150  4  0  0  0  0
149151  4  0  0  0  0
150151  4  0  0  0  0
117152  4  0  0  0  0
151152  4  0  0  0  0
152153  4  0  0  0  0
153154  4  0  0  0  0
154155  2  0  0  0  0
155156  4  0  0  0  0
133157  1  0  0  0  0
153157  4  0  0  0  0
156157  4  0  0  0  0
156158  4  0  0  0  0
158159  1  0  0  0  0
159160  4  0  0  0  0
160161  4  0  0  0  0
161162  4  0  0  0  0
162163  4  0  0  0  0
159164  4  0  0  0  0
163164  4  0  0  0  0
158165  4  0  0  0  0
165166  4  0  0  0  0
166167  2  0  0  0  0
134168  4  0  0  0  0
167168  4  0  0  0  0
133169  1  0  0  0  0
165169  4  0  0  0  0
168169  4  0  0  0  0
136170  1  0  0  0  0
137171  1  0  0  0  0
142172  1  0  0  0  0
143173  1  0  0  0  0
145174  1  0  0  0  0
146175  1  0  0  0  0
148176  1  0  0  0  0
149177  1  0  0  0  0
154178  1  0  0  0  0
155179  1  0  0  0  0
160180  1  0  0  0  0
161181  1  0  0  0  0
163182  1  0  0  0  0
164183  1  0  0  0  0
166184  1  0  0  0  0
167185  1  0  0  0  0
124187  4  0  0  0  0
187188  4  0  0  0  0
188189  4  0  0  0  0
189190  2  0  0  0  0
190191  4  0  0  0  0
186192  1  0  0  0  0
188192  4  0  0  0  0
191192  4  0  0  0  0
191193  4  0  0  0  0
193194  1  0  0  0  0
194195  4  0  0  0  0
195196  4  0  0  0  0
196197  4  0  0  0  0
197198  4  0  0  0  0
194199  4  0  0  0  0
198199  4  0  0  0  0
193200  4  0  0  0  0
200201  4  0  0  0  0
201202  2  0  0  0  0
186203  1  0  0  0  0
200203  4  0  0  0  0
202204  4  0  0  0  0
203204  4  0  0  0  0
125205  4  0  0  0  0
204205  4  0  0  0  0
205206  4  0  0  0  0
206207  4  0  0  0  0
207208  2  0  0  0  0
208209  4  0  0  0  0
186210  1  0  0  0  0
206210  4  0  0  0  0
209210  4  0  0  0  0
209211  4  0  0  0  0
211212  1  0  0  0  0
212213  4  0  0  0  0
213214  4  0  0  0  0
214215  4  0  0  0  0
215216  4  0  0  0  0
212217  4  0  0  0  0
216217  4  0  0  0  0
211218  4  0  0  0  0
218219  4  0  0  0  0
219220  2  0  0  0  0
187221  4  0  0  0  0
220221  4  0  0  0  0
186222  1  0  0  0  0
218222  4  0  0  0  0
221222  4  0  0  0  0
189223  1  0  0  0  0
190224  1  0  0  0  0
195225  1  0  0  0  0
196226  1  0  0  0  0
198227  1  0  0  0  0
199228  1  0  0  0  0
201229  1  0  0  0  0
202230  1  0  0  0  0
207231  1  0  0  0  0
208232  1  0  0  0  0
213233  1  0  0  0  0
214234  1  0  0  0  0
216235  1  0  0  0  0
217236  1  0  0  0  0
219237  1  0  0  0  0
220238  1  0  0  0  0
M  END
