 xtb: 6.5.1 (b24c23e)
          07302206083D

205234  0     0  0            999 V2000
   36.0281    0.0393   -0.0340 Cu  0  0  0  0  0  0  0  0  0  0  0  0
   32.6223    0.0628   -0.0450 C   0  0  0  0  0  0  0  0  0  0  0  0
   33.2502    0.9812    0.7831 C   0  0  0  0  0  0  0  0  0  0  0  0
   32.5688    1.8810    1.6680 C   0  0  0  0  0  0  0  0  0  0  0  0
   33.5223    2.6069    2.3037 C   0  0  0  0  0  0  0  0  0  0  0  0
   34.7951    2.1671    1.8009 C   0  0  0  0  0  0  0  0  0  0  0  0
   34.5989    1.1739    0.8849 N   0  0  0  0  0  0  0  0  0  0  0  0
   36.0357    2.6706    2.2041 C   0  0  0  0  0  0  0  0  0  0  0  0
   36.0365    3.7946    3.1698 C   0  0  0  0  0  0  0  0  0  0  0  0
   35.4038    5.0025    2.8622 C   0  0  0  0  0  0  0  0  0  0  0  0
   35.4021    6.0499    3.7638 C   0  0  0  0  0  0  0  0  0  0  0  0
   36.0291    5.9179    5.0090 C   0  0  0  0  0  0  0  0  0  0  0  0
   35.9473    6.9738    5.9052 N   0  0  0  0  0  0  0  0  0  0  0  0
   36.9432    7.1013    6.9607 C   0  0  0  0  0  0  0  0  0  0  0  0
   36.6524    4.7078    5.3269 C   0  0  0  0  0  0  0  0  0  0  0  0
   36.6599    3.6683    4.4125 C   0  0  0  0  0  0  0  0  0  0  0  0
   37.2720    2.1888    1.7666 C   0  0  0  0  0  0  0  0  0  0  0  0
   38.5436    2.7546    2.1166 C   0  0  0  0  0  0  0  0  0  0  0  0
   39.4956    2.0131    1.4942 C   0  0  0  0  0  0  0  0  0  0  0  0
   37.4694    1.1232    0.9279 N   0  0  0  0  0  0  0  0  0  0  0  0
   38.8132    0.9960    0.7533 C   0  0  0  0  0  0  0  0  0  0  0  0
   39.4569    0.0162   -0.0239 C   0  0  0  0  0  0  0  0  0  0  0  0
   38.8046   -0.9558   -0.8038 C   0  0  0  0  0  0  0  0  0  0  0  0
   39.4776   -1.9826   -1.5399 C   0  0  0  0  0  0  0  0  0  0  0  0
   38.5193   -2.7116   -2.1675 C   0  0  0  0  0  0  0  0  0  0  0  0
   37.2536   -2.1282   -1.8255 C   0  0  0  0  0  0  0  0  0  0  0  0
   37.4604   -1.0649   -0.9862 N   0  0  0  0  0  0  0  0  0  0  0  0
   36.0135   -2.5936   -2.2701 C   0  0  0  0  0  0  0  0  0  0  0  0
   36.0059   -3.7204   -3.2325 C   0  0  0  0  0  0  0  0  0  0  0  0
   36.6361   -3.6051   -4.4728 C   0  0  0  0  0  0  0  0  0  0  0  0
   36.6248   -4.6494   -5.3819 C   0  0  0  0  0  0  0  0  0  0  0  0
   35.9912   -5.8531   -5.0603 C   0  0  0  0  0  0  0  0  0  0  0  0
   35.9087   -6.9142   -5.9504 N   0  0  0  0  0  0  0  0  0  0  0  0
   36.9126   -7.0548   -6.9968 C   0  0  0  0  0  0  0  0  0  0  0  0
   35.3556   -5.9731   -3.8184 C   0  0  0  0  0  0  0  0  0  0  0  0
   35.3608   -4.9210   -2.9223 C   0  0  0  0  0  0  0  0  0  0  0  0
   34.7775   -2.0727   -1.8752 C   0  0  0  0  0  0  0  0  0  0  0  0
   33.5021   -2.4964   -2.3851 C   0  0  0  0  0  0  0  0  0  0  0  0
   32.5546   -1.7565   -1.7565 C   0  0  0  0  0  0  0  0  0  0  0  0
   33.2427   -0.8644   -0.8689 C   0  0  0  0  0  0  0  0  0  0  0  0
   34.5892   -1.0756   -0.9620 N   0  0  0  0  0  0  0  0  0  0  0  0
   31.5370    0.0702   -0.0482 H   0  0  0  0  0  0  0  0  0  0  0  0
   31.4980    1.9308    1.7889 H   0  0  0  0  0  0  0  0  0  0  0  0
   33.3821    3.3636    3.0588 H   0  0  0  0  0  0  0  0  0  0  0  0
   34.9284    5.1255    1.8951 H   0  0  0  0  0  0  0  0  0  0  0  0
   34.9131    6.9844    3.5092 H   0  0  0  0  0  0  0  0  0  0  0  0
   35.7536    7.8579    5.4501 H   0  0  0  0  0  0  0  0  0  0  0  0
   37.9627    7.0706    6.5592 H   0  0  0  0  0  0  0  0  0  0  0  0
   36.8202    6.2992    7.6895 H   0  0  0  0  0  0  0  0  0  0  0  0
   36.7819    8.0555    7.4623 H   0  0  0  0  0  0  0  0  0  0  0  0
   37.1295    4.5690    6.2893 H   0  0  0  0  0  0  0  0  0  0  0  0
   37.1376    2.7307    4.6757 H   0  0  0  0  0  0  0  0  0  0  0  0
   38.6862    3.6204    2.7429 H   0  0  0  0  0  0  0  0  0  0  0  0
   40.5659    2.1421    1.5214 H   0  0  0  0  0  0  0  0  0  0  0  0
   40.5461   -2.1264   -1.5604 H   0  0  0  0  0  0  0  0  0  0  0  0
   38.6538   -3.5796   -2.7926 H   0  0  0  0  0  0  0  0  0  0  0  0
   37.1229   -2.6729   -4.7382 H   0  0  0  0  0  0  0  0  0  0  0  0
   37.1076   -4.5195   -6.3427 H   0  0  0  0  0  0  0  0  0  0  0  0
   35.7064   -7.7940   -5.4908 H   0  0  0  0  0  0  0  0  0  0  0  0
   36.7957   -6.2612   -7.7360 H   0  0  0  0  0  0  0  0  0  0  0  0
   36.7545   -8.0148   -7.4882 H   0  0  0  0  0  0  0  0  0  0  0  0
   37.9289   -7.0198   -6.5879 H   0  0  0  0  0  0  0  0  0  0  0  0
   34.8579   -6.9024   -3.5615 H   0  0  0  0  0  0  0  0  0  0  0  0
   34.8789   -5.0347   -1.9573 H   0  0  0  0  0  0  0  0  0  0  0  0
   33.3566   -3.2529   -3.1393 H   0  0  0  0  0  0  0  0  0  0  0  0
   31.4839   -1.7921   -1.8838 H   0  0  0  0  0  0  0  0  0  0  0  0
   62.9684    0.0185   -0.0155 Cu  0  0  0  0  0  0  0  0  0  0  0  0
   66.3742    0.0221   -0.0427 C   0  0  0  0  0  0  0  0  0  0  0  0
   65.7455   -0.9871   -0.7567 C   0  0  0  0  0  0  0  0  0  0  0  0
   66.4262   -2.0476   -1.4418 C   0  0  0  0  0  0  0  0  0  0  0  0
   65.4721   -2.8275   -2.0087 C   0  0  0  0  0  0  0  0  0  0  0  0
   64.1995   -2.2412   -1.6872 C   0  0  0  0  0  0  0  0  0  0  0  0
   64.3967   -1.1293   -0.9202 N   0  0  0  0  0  0  0  0  0  0  0  0
   62.9583   -2.7469   -2.0859 C   0  0  0  0  0  0  0  0  0  0  0  0
   62.9573   -3.9380   -2.9677 C   0  0  0  0  0  0  0  0  0  0  0  0
   63.5846   -3.9037   -4.2164 C   0  0  0  0  0  0  0  0  0  0  0  0
   63.5892   -5.0161   -5.0365 C   0  0  0  0  0  0  0  0  0  0  0  0
   62.9709   -6.2041   -4.6276 C   0  0  0  0  0  0  0  0  0  0  0  0
   63.0573   -7.3132   -5.4567 N   0  0  0  0  0  0  0  0  0  0  0  0
   62.0694   -8.3775   -5.3416 C   0  0  0  0  0  0  0  0  0  0  0  0
   62.3520   -6.2475   -3.3751 C   0  0  0  0  0  0  0  0  0  0  0  0
   62.3412   -5.1243   -2.5655 C   0  0  0  0  0  0  0  0  0  0  0  0
   61.7222   -2.2148   -1.7103 C   0  0  0  0  0  0  0  0  0  0  0  0
   60.4500   -2.6834   -2.1809 C   0  0  0  0  0  0  0  0  0  0  0  0
   59.4988   -1.9112   -1.5958 C   0  0  0  0  0  0  0  0  0  0  0  0
   61.5258   -1.1594   -0.8587 N   0  0  0  0  0  0  0  0  0  0  0  0
   60.1822   -0.9612   -0.7715 C   0  0  0  0  0  0  0  0  0  0  0  0
   59.5396    0.0162    0.0100 C   0  0  0  0  0  0  0  0  0  0  0  0
   60.1926    0.9931    0.7833 C   0  0  0  0  0  0  0  0  0  0  0  0
   59.5203    1.9398    1.6205 C   0  0  0  0  0  0  0  0  0  0  0  0
   60.4792    2.7117    2.1933 C   0  0  0  0  0  0  0  0  0  0  0  0
   61.7448    2.2468    1.7017 C   0  0  0  0  0  0  0  0  0  0  0  0
   61.5370    1.1933    0.8505 N   0  0  0  0  0  0  0  0  0  0  0  0
   62.9855    2.7809    2.0586 C   0  0  0  0  0  0  0  0  0  0  0  0
   62.9949    3.9679    2.9458 C   0  0  0  0  0  0  0  0  0  0  0  0
   62.3662    5.1534    2.5609 C   0  0  0  0  0  0  0  0  0  0  0  0
   62.3806    6.2704    3.3790 C   0  0  0  0  0  0  0  0  0  0  0  0
   63.0164    6.2212    4.6228 C   0  0  0  0  0  0  0  0  0  0  0  0
   63.1032    7.3235    5.4609 N   0  0  0  0  0  0  0  0  0  0  0  0
   62.1022    8.3780    5.3690 C   0  0  0  0  0  0  0  0  0  0  0  0
   63.6501    5.0351    5.0130 C   0  0  0  0  0  0  0  0  0  0  0  0
   63.6415    3.9290    4.1845 C   0  0  0  0  0  0  0  0  0  0  0  0
   64.2213    2.2792    1.6385 C   0  0  0  0  0  0  0  0  0  0  0  0
   65.4974    2.8682    1.9400 C   0  0  0  0  0  0  0  0  0  0  0  0
   66.4441    2.0911    1.3568 C   0  0  0  0  0  0  0  0  0  0  0  0
   65.7549    1.0298    0.6816 C   0  0  0  0  0  0  0  0  0  0  0  0
   64.4086    1.1688    0.8669 N   0  0  0  0  0  0  0  0  0  0  0  0
   67.4594    0.0232   -0.0513 H   0  0  0  0  0  0  0  0  0  0  0  0
   67.4971   -2.1758   -1.4661 H   0  0  0  0  0  0  0  0  0  0  0  0
   65.6117   -3.7299   -2.5819 H   0  0  0  0  0  0  0  0  0  0  0  0
   64.0539   -2.9858   -4.5535 H   0  0  0  0  0  0  0  0  0  0  0  0
   64.0742   -4.9735   -6.0061 H   0  0  0  0  0  0  0  0  0  0  0  0
   63.2470   -7.0665   -6.4206 H   0  0  0  0  0  0  0  0  0  0  0  0
   61.0469   -7.9864   -5.3960 H   0  0  0  0  0  0  0  0  0  0  0  0
   62.2006   -8.9089   -4.3981 H   0  0  0  0  0  0  0  0  0  0  0  0
   62.2317   -9.0776   -6.1612 H   0  0  0  0  0  0  0  0  0  0  0  0
   61.8811   -7.1573   -3.0235 H   0  0  0  0  0  0  0  0  0  0  0  0
   61.8673   -5.1744   -1.5911 H   0  0  0  0  0  0  0  0  0  0  0  0
   60.3067   -3.4880   -2.8840 H   0  0  0  0  0  0  0  0  0  0  0  0
   58.4283   -1.9672   -1.7135 H   0  0  0  0  0  0  0  0  0  0  0  0
   58.4516    1.9935    1.7549 H   0  0  0  0  0  0  0  0  0  0  0  0
   60.3451    3.5138    2.9011 H   0  0  0  0  0  0  0  0  0  0  0  0
   61.8782    5.2077    1.5937 H   0  0  0  0  0  0  0  0  0  0  0  0
   61.8987    7.1797    3.0412 H   0  0  0  0  0  0  0  0  0  0  0  0
   63.3075    7.0694    6.4200 H   0  0  0  0  0  0  0  0  0  0  0  0
   62.2181    8.9227    4.4311 H   0  0  0  0  0  0  0  0  0  0  0  0
   62.2646    9.0693    6.1959 H   0  0  0  0  0  0  0  0  0  0  0  0
   61.0848    7.9745    5.4283 H   0  0  0  0  0  0  0  0  0  0  0  0
   64.1494    4.9886    5.9752 H   0  0  0  0  0  0  0  0  0  0  0  0
   64.1221    3.0120    4.5076 H   0  0  0  0  0  0  0  0  0  0  0  0
   65.6441    3.7703    2.5118 H   0  0  0  0  0  0  0  0  0  0  0  0
   67.5150    2.2217    1.3638 H   0  0  0  0  0  0  0  0  0  0  0  0
   42.0851    0.0029   -0.0254 C   0  0  0  0  0  0  0  0  0  0  0  0
   40.8628    0.0082   -0.0218 C   0  0  0  0  0  0  0  0  0  0  0  0
   43.4349   -0.0010   -0.0249 C   0  0  0  0  0  0  0  0  0  0  0  0
   44.6573   -0.0023   -0.0260 C   0  0  0  0  0  0  0  0  0  0  0  0
   55.5616    0.0185    0.0241 C   0  0  0  0  0  0  0  0  0  0  0  0
   54.3392    0.0188    0.0227 C   0  0  0  0  0  0  0  0  0  0  0  0
   56.9114    0.0184    0.0227 C   0  0  0  0  0  0  0  0  0  0  0  0
   58.1337    0.0169    0.0180 C   0  0  0  0  0  0  0  0  0  0  0  0
   49.4980    0.0100   -0.0046 Cu  0  0  0  0  0  0  0  0  0  0  0  0
   46.0627    0.0008   -0.0213 C   0  0  0  0  0  0  0  0  0  0  0  0
   46.7178   -1.0123   -0.7453 C   0  0  0  0  0  0  0  0  0  0  0  0
   46.0479   -2.0792   -1.4245 C   0  0  0  0  0  0  0  0  0  0  0  0
   47.0091   -2.8416   -2.0066 C   0  0  0  0  0  0  0  0  0  0  0  0
   48.2725   -2.2375   -1.6944 C   0  0  0  0  0  0  0  0  0  0  0  0
   48.0623   -1.1288   -0.9179 N   0  0  0  0  0  0  0  0  0  0  0  0
   49.5156   -2.7227   -2.1097 C   0  0  0  0  0  0  0  0  0  0  0  0
   49.5248   -3.8966   -3.0141 C   0  0  0  0  0  0  0  0  0  0  0  0
   50.1699   -5.0795   -2.6418 C   0  0  0  0  0  0  0  0  0  0  0  0
   50.1808   -6.1745   -3.4848 C   0  0  0  0  0  0  0  0  0  0  0  0
   49.5564   -6.1149   -4.7366 C   0  0  0  0  0  0  0  0  0  0  0  0
   49.5554   -7.2539   -5.5293 N   0  0  0  0  0  0  0  0  0  0  0  0
   49.3797   -7.1269   -6.9700 C   0  0  0  0  0  0  0  0  0  0  0  0
   48.9036   -4.9370   -5.1112 C   0  0  0  0  0  0  0  0  0  0  0  0
   48.8903   -3.8477   -4.2566 C   0  0  0  0  0  0  0  0  0  0  0  0
   50.7522   -2.1876   -1.7380 C   0  0  0  0  0  0  0  0  0  0  0  0
   52.0225   -2.6345   -2.2330 C   0  0  0  0  0  0  0  0  0  0  0  0
   52.9741   -1.8708   -1.6366 C   0  0  0  0  0  0  0  0  0  0  0  0
   50.9487   -1.1526   -0.8625 N   0  0  0  0  0  0  0  0  0  0  0  0
   52.2912   -0.9466   -0.7836 C   0  0  0  0  0  0  0  0  0  0  0  0
   52.9339    0.0165    0.0158 C   0  0  0  0  0  0  0  0  0  0  0  0
   52.2785    0.9778    0.8069 C   0  0  0  0  0  0  0  0  0  0  0  0
   52.9477    1.9063    1.6661 C   0  0  0  0  0  0  0  0  0  0  0  0
   51.9863    2.6681    2.2489 C   0  0  0  0  0  0  0  0  0  0  0  0
   50.7236    2.2150    1.7402 C   0  0  0  0  0  0  0  0  0  0  0  0
   50.9343    1.1789    0.8695 N   0  0  0  0  0  0  0  0  0  0  0  0
   49.4807    2.7452    2.0972 C   0  0  0  0  0  0  0  0  0  0  0  0
   49.4741    3.9205    2.9999 C   0  0  0  0  0  0  0  0  0  0  0  0
   48.8285    3.8687    4.2365 C   0  0  0  0  0  0  0  0  0  0  0  0
   48.8261    4.9592    5.0897 C   0  0  0  0  0  0  0  0  0  0  0  0
   49.4737    6.1412    4.7194 C   0  0  0  0  0  0  0  0  0  0  0  0
   49.4569    7.2814    5.5103 N   0  0  0  0  0  0  0  0  0  0  0  0
   49.2695    7.1550    6.9496 C   0  0  0  0  0  0  0  0  0  0  0  0
   50.1092    6.2036    3.4733 C   0  0  0  0  0  0  0  0  0  0  0  0
   50.1142    5.1073    2.6319 C   0  0  0  0  0  0  0  0  0  0  0  0
   48.2445    2.2532    1.6699 C   0  0  0  0  0  0  0  0  0  0  0  0
   46.9749    2.8506    1.9695 C   0  0  0  0  0  0  0  0  0  0  0  0
   46.0234    2.0820    1.3795 C   0  0  0  0  0  0  0  0  0  0  0  0
   46.7056    1.0181    0.7077 C   0  0  0  0  0  0  0  0  0  0  0  0
   48.0477    1.1425    0.8927 N   0  0  0  0  0  0  0  0  0  0  0  0
   44.9796   -2.2255   -1.4393 H   0  0  0  0  0  0  0  0  0  0  0  0
   46.8773   -3.7442   -2.5812 H   0  0  0  0  0  0  0  0  0  0  0  0
   50.6503   -5.1433   -1.6716 H   0  0  0  0  0  0  0  0  0  0  0  0
   50.6757   -7.0902   -3.1786 H   0  0  0  0  0  0  0  0  0  0  0  0
   50.3007   -7.8964   -5.2884 H   0  0  0  0  0  0  0  0  0  0  0  0
   48.3588   -6.8167   -7.1963 H   0  0  0  0  0  0  0  0  0  0  0  0
   50.0806   -6.4016   -7.3992 H   0  0  0  0  0  0  0  0  0  0  0  0
   49.5543   -8.1052   -7.4179 H   0  0  0  0  0  0  0  0  0  0  0  0
   48.4038   -4.8636   -6.0693 H   0  0  0  0  0  0  0  0  0  0  0  0
   48.3965   -2.9332   -4.5669 H   0  0  0  0  0  0  0  0  0  0  0  0
   52.1656   -3.4192   -2.9582 H   0  0  0  0  0  0  0  0  0  0  0  0
   54.0437   -1.9155   -1.7661 H   0  0  0  0  0  0  0  0  0  0  0  0
   54.0156    1.9550    1.8082 H   0  0  0  0  0  0  0  0  0  0  0  0
   52.1176    3.4554    2.9735 H   0  0  0  0  0  0  0  0  0  0  0  0
   48.3382    2.9511    4.5435 H   0  0  0  0  0  0  0  0  0  0  0  0
   48.3181    4.8833    6.0433 H   0  0  0  0  0  0  0  0  0  0  0  0
   50.2000    7.9287    5.2755 H   0  0  0  0  0  0  0  0  0  0  0  0
   49.9747    6.4388    7.3867 H   0  0  0  0  0  0  0  0  0  0  0  0
   49.4284    8.1361    7.3973 H   0  0  0  0  0  0  0  0  0  0  0  0
   48.2502    6.8335    7.1671 H   0  0  0  0  0  0  0  0  0  0  0  0
   50.6002    7.1225    3.1704 H   0  0  0  0  0  0  0  0  0  0  0  0
   50.6031    5.1732    1.6661 H   0  0  0  0  0  0  0  0  0  0  0  0
   46.8326    3.7530    2.5418 H   0  0  0  0  0  0  0  0  0  0  0  0
   44.9542    2.2225    1.3844 H   0  0  0  0  0  0  0  0  0  0  0  0
  2  3  4  0  0  0  0
  3  4  4  0  0  0  0
  4  5  2  0  0  0  0
  5  6  4  0  0  0  0
  1  7  1  0  0  0  0
  3  7  4  0  0  0  0
  6  7  4  0  0  0  0
  6  8  4  0  0  0  0
  8  9  1  0  0  0  0
  9 10  4  0  0  0  0
 10 11  4  0  0  0  0
 11 12  4  0  0  0  0
 12 13  1  0  0  0  0
 13 14  1  0  0  0  0
 12 15  4  0  0  0  0
  9 16  4  0  0  0  0
 15 16  4  0  0  0  0
  8 17  4  0  0  0  0
 17 18  4  0  0  0  0
 18 19  2  0  0  0  0
  1 20  1  0  0  0  0
 17 20  4  0  0  0  0
 19 21  4  0  0  0  0
 20 21  4  0  0  0  0
 21 22  4  0  0  0  0
 22 23  4  0  0  0  0
 23 24  4  0  0  0  0
 24 25  2  0  0  0  0
 25 26  4  0  0  0  0
  1 27  1  0  0  0  0
 23 27  4  0  0  0  0
 26 27  4  0  0  0  0
 26 28  4  0  0  0  0
 28 29  1  0  0  0  0
 29 30  4  0  0  0  0
 30 31  4  0  0  0  0
 31 32  4  0  0  0  0
 32 33  1  0  0  0  0
 33 34  1  0  0  0  0
 32 35  4  0  0  0  0
 29 36  4  0  0  0  0
 35 36  4  0  0  0  0
 28 37  4  0  0  0  0
 37 38  4  0  0  0  0
 38 39  2  0  0  0  0
  2 40  4  0  0  0  0
 39 40  4  0  0  0  0
  1 41  1  0  0  0  0
 37 41  4  0  0  0  0
 40 41  4  0  0  0  0
  2 42  1  0  0  0  0
  4 43  1  0  0  0  0
  5 44  1  0  0  0  0
 10 45  1  0  0  0  0
 11 46  1  0  0  0  0
 13 47  1  0  0  0  0
 14 48  1  0  0  0  0
 14 49  1  0  0  0  0
 14 50  1  0  0  0  0
 15 51  1  0  0  0  0
 16 52  1  0  0  0  0
 18 53  1  0  0  0  0
 19 54  1  0  0  0  0
 24 55  1  0  0  0  0
 25 56  1  0  0  0  0
 30 57  1  0  0  0  0
 31 58  1  0  0  0  0
 33 59  1  0  0  0  0
 34 60  1  0  0  0  0
 34 61  1  0  0  0  0
 34 62  1  0  0  0  0
 35 63  1  0  0  0  0
 36 64  1  0  0  0  0
 38 65  1  0  0  0  0
 39 66  1  0  0  0  0
 68 69  4  0  0  0  0
 69 70  4  0  0  0  0
 70 71  2  0  0  0  0
 71 72  4  0  0  0  0
 67 73  1  0  0  0  0
 69 73  4  0  0  0  0
 72 73  4  0  0  0  0
 72 74  4  0  0  0  0
 74 75  1  0  0  0  0
 75 76  4  0  0  0  0
 76 77  4  0  0  0  0
 77 78  4  0  0  0  0
 78 79  1  0  0  0  0
 79 80  1  0  0  0  0
 78 81  4  0  0  0  0
 75 82  4  0  0  0  0
 81 82  4  0  0  0  0
 74 83  4  0  0  0  0
 83 84  4  0  0  0  0
 84 85  2  0  0  0  0
 67 86  1  0  0  0  0
 83 86  4  0  0  0  0
 85 87  4  0  0  0  0
 86 87  4  0  0  0  0
 87 88  4  0  0  0  0
 88 89  4  0  0  0  0
 89 90  4  0  0  0  0
 90 91  2  0  0  0  0
 91 92  4  0  0  0  0
 67 93  1  0  0  0  0
 89 93  4  0  0  0  0
 92 93  4  0  0  0  0
 92 94  4  0  0  0  0
 94 95  1  0  0  0  0
 95 96  4  0  0  0  0
 96 97  4  0  0  0  0
 97 98  4  0  0  0  0
 98 99  1  0  0  0  0
 99100  1  0  0  0  0
 98101  4  0  0  0  0
 95102  4  0  0  0  0
101102  4  0  0  0  0
 94103  4  0  0  0  0
103104  4  0  0  0  0
104105  2  0  0  0  0
 68106  4  0  0  0  0
105106  4  0  0  0  0
 67107  1  0  0  0  0
103107  4  0  0  0  0
106107  4  0  0  0  0
 68108  1  0  0  0  0
 70109  1  0  0  0  0
 71110  1  0  0  0  0
 76111  1  0  0  0  0
 77112  1  0  0  0  0
 79113  1  0  0  0  0
 80114  1  0  0  0  0
 80115  1  0  0  0  0
 80116  1  0  0  0  0
 81117  1  0  0  0  0
 82118  1  0  0  0  0
 84119  1  0  0  0  0
 85120  1  0  0  0  0
 90121  1  0  0  0  0
 91122  1  0  0  0  0
 96123  1  0  0  0  0
 97124  1  0  0  0  0
 99125  1  0  0  0  0
100126  1  0  0  0  0
100127  1  0  0  0  0
100128  1  0  0  0  0
101129  1  0  0  0  0
102130  1  0  0  0  0
104131  1  0  0  0  0
105132  1  0  0  0  0
 22134  4  0  0  0  0
133134  3  0  0  0  0
133135  4  0  0  0  0
135136  3  0  0  0  0
137138  3  0  0  0  0
137139  4  0  0  0  0
 88140  4  0  0  0  0
139140  3  0  0  0  0
136142  4  0  0  0  0
142143  4  0  0  0  0
143144  4  0  0  0  0
144145  2  0  0  0  0
145146  4  0  0  0  0
141147  1  0  0  0  0
143147  4  0  0  0  0
146147  4  0  0  0  0
146148  4  0  0  0  0
148149  1  0  0  0  0
149150  4  0  0  0  0
150151  4  0  0  0  0
151152  4  0  0  0  0
152153  1  0  0  0  0
153154  1  0  0  0  0
152155  4  0  0  0  0
149156  4  0  0  0  0
155156  4  0  0  0  0
148157  4  0  0  0  0
157158  4  0  0  0  0
158159  2  0  0  0  0
141160  1  0  0  0  0
157160  4  0  0  0  0
159161  4  0  0  0  0
160161  4  0  0  0  0
138162  4  0  0  0  0
161162  4  0  0  0  0
162163  4  0  0  0  0
163164  4  0  0  0  0
164165  2  0  0  0  0
165166  4  0  0  0  0
141167  1  0  0  0  0
163167  4  0  0  0  0
166167  4  0  0  0  0
166168  4  0  0  0  0
168169  1  0  0  0  0
169170  4  0  0  0  0
170171  4  0  0  0  0
171172  4  0  0  0  0
172173  1  0  0  0  0
173174  1  0  0  0  0
172175  4  0  0  0  0
169176  4  0  0  0  0
175176  4  0  0  0  0
168177  4  0  0  0  0
177178  4  0  0  0  0
178179  2  0  0  0  0
142180  4  0  0  0  0
179180  4  0  0  0  0
141181  1  0  0  0  0
177181  4  0  0  0  0
180181  4  0  0  0  0
144182  1  0  0  0  0
145183  1  0  0  0  0
150184  1  0  0  0  0
151185  1  0  0  0  0
153186  1  0  0  0  0
154187  1  0  0  0  0
154188  1  0  0  0  0
154189  1  0  0  0  0
155190  1  0  0  0  0
156191  1  0  0  0  0
158192  1  0  0  0  0
159193  1  0  0  0  0
164194  1  0  0  0  0
165195  1  0  0  0  0
170196  1  0  0  0  0
171197  1  0  0  0  0
173198  1  0  0  0  0
174199  1  0  0  0  0
174200  1  0  0  0  0
174201  1  0  0  0  0
175202  1  0  0  0  0
176203  1  0  0  0  0
178204  1  0  0  0  0
179205  1  0  0  0  0
M  END
