 xtb: 6.5.1 (b24c23e)
          07272208013D

116129  0     0  0            999 V2000
    7.8174    0.0875    0.0440 C   0  0  0  0  0  0  0  0  0  0  0  0
    8.4227    1.3172    0.2684 C   0  0  0  0  0  0  0  0  0  0  0  0
    7.7670    2.5618    0.4844 C   0  0  0  0  0  0  0  0  0  0  0  0
    8.7262    3.5154    0.6781 C   0  0  0  0  0  0  0  0  0  0  0  0
    9.9993    2.8821    0.5957 C   0  0  0  0  0  0  0  0  0  0  0  0
    9.7654    1.5615    0.3370 N   0  0  0  0  0  0  0  0  0  0  0  0
   11.2611    3.4730    0.7267 C   0  0  0  0  0  0  0  0  0  0  0  0
   11.2879    4.9221    1.0356 C   0  0  0  0  0  0  0  0  0  0  0  0
   11.8952    5.8354    0.1741 C   0  0  0  0  0  0  0  0  0  0  0  0
   11.8919    7.1814    0.5039 C   0  0  0  0  0  0  0  0  0  0  0  0
   11.3355    7.6540    1.6148 N   0  0  0  0  0  0  0  0  0  0  0  0
   10.7565    6.7903    2.4427 C   0  0  0  0  0  0  0  0  0  0  0  0
   10.7051    5.4271    2.1976 C   0  0  0  0  0  0  0  0  0  0  0  0
   12.4793    2.8028    0.5906 C   0  0  0  0  0  0  0  0  0  0  0  0
   13.7752    3.4266    0.7904 C   0  0  0  0  0  0  0  0  0  0  0  0
   14.6986    2.4684    0.5692 C   0  0  0  0  0  0  0  0  0  0  0  0
   12.6374    1.4874    0.2766 N   0  0  0  0  0  0  0  0  0  0  0  0
   13.9657    1.2595    0.2459 C   0  0  0  0  0  0  0  0  0  0  0  0
   14.6065    0.0403   -0.0555 C   0  0  0  0  0  0  0  0  0  0  0  0
   13.9742   -1.1870   -0.3314 C   0  0  0  0  0  0  0  0  0  0  0  0
   14.6212   -2.4099   -0.6517 C   0  0  0  0  0  0  0  0  0  0  0  0
   13.6576   -3.3643   -0.8255 C   0  0  0  0  0  0  0  0  0  0  0  0
   12.3914   -2.7534   -0.6088 C   0  0  0  0  0  0  0  0  0  0  0  0
   12.6343   -1.4359   -0.3233 N   0  0  0  0  0  0  0  0  0  0  0  0
   11.1313   -3.3550   -0.6926 C   0  0  0  0  0  0  0  0  0  0  0  0
   11.1042   -4.8069   -0.9862 C   0  0  0  0  0  0  0  0  0  0  0  0
   11.7035   -5.7315   -0.1312 C   0  0  0  0  0  0  0  0  0  0  0  0
   11.6485   -7.0798   -0.4477 C   0  0  0  0  0  0  0  0  0  0  0  0
   11.0521   -7.5437   -1.5411 N   0  0  0  0  0  0  0  0  0  0  0  0
   10.4808   -6.6690   -2.3630 C   0  0  0  0  0  0  0  0  0  0  0  0
   10.4783   -5.3031   -2.1295 C   0  0  0  0  0  0  0  0  0  0  0  0
    9.9126   -2.6899   -0.5224 C   0  0  0  0  0  0  0  0  0  0  0  0
    8.6116   -3.3394   -0.5676 C   0  0  0  0  0  0  0  0  0  0  0  0
    7.6946   -2.3719   -0.3661 C   0  0  0  0  0  0  0  0  0  0  0  0
    8.4345   -1.1352   -0.1850 C   0  0  0  0  0  0  0  0  0  0  0  0
    9.7672   -1.3664   -0.2765 N   0  0  0  0  0  0  0  0  0  0  0  0
    6.7321    0.0914    0.0544 H   0  0  0  0  0  0  0  0  0  0  0  0
    6.6972    2.6973    0.4839 H   0  0  0  0  0  0  0  0  0  0  0  0
    8.5716    4.5676    0.8537 H   0  0  0  0  0  0  0  0  0  0  0  0
   10.4928    0.8653    0.2132 H   0  0  0  0  0  0  0  0  0  0  0  0
   12.3498    5.4976   -0.7496 H   0  0  0  0  0  0  0  0  0  0  0  0
   12.3560    7.9113   -0.1530 H   0  0  0  0  0  0  0  0  0  0  0  0
   10.3138    7.2058    3.3432 H   0  0  0  0  0  0  0  0  0  0  0  0
   10.2345    4.7596    2.9097 H   0  0  0  0  0  0  0  0  0  0  0  0
   13.9352    4.4536    1.0757 H   0  0  0  0  0  0  0  0  0  0  0  0
   15.7728    2.5444    0.6221 H   0  0  0  0  0  0  0  0  0  0  0  0
   15.6886   -2.5323   -0.7406 H   0  0  0  0  0  0  0  0  0  0  0  0
   13.8067   -4.3983   -1.0903 H   0  0  0  0  0  0  0  0  0  0  0  0
   11.9107   -0.7491   -0.1380 H   0  0  0  0  0  0  0  0  0  0  0  0
   12.1899   -5.4014    0.7791 H   0  0  0  0  0  0  0  0  0  0  0  0
   12.1032   -7.8186    0.2058 H   0  0  0  0  0  0  0  0  0  0  0  0
   10.0040   -7.0780   -3.2490 H   0  0  0  0  0  0  0  0  0  0  0  0
   10.0110   -4.6263   -2.8348 H   0  0  0  0  0  0  0  0  0  0  0  0
    8.4478   -4.3939   -0.7208 H   0  0  0  0  0  0  0  0  0  0  0  0
    6.6199   -2.4570   -0.3291 H   0  0  0  0  0  0  0  0  0  0  0  0
   30.5683   -0.0986    0.0004 C   0  0  0  0  0  0  0  0  0  0  0  0
   29.9633   -1.2940   -0.3657 C   0  0  0  0  0  0  0  0  0  0  0  0
   30.6195   -2.4980   -0.7471 C   0  0  0  0  0  0  0  0  0  0  0  0
   29.6607   -3.4345   -1.0128 C   0  0  0  0  0  0  0  0  0  0  0  0
   28.3875   -2.8353   -0.7930 C   0  0  0  0  0  0  0  0  0  0  0  0
   28.6208   -1.5434   -0.4159 N   0  0  0  0  0  0  0  0  0  0  0  0
   27.1258   -3.4216   -0.9449 C   0  0  0  0  0  0  0  0  0  0  0  0
   27.0991   -4.8510   -1.3345 C   0  0  0  0  0  0  0  0  0  0  0  0
   26.4886   -5.2684   -2.5169 C   0  0  0  0  0  0  0  0  0  0  0  0
   26.4927   -6.6158   -2.8410 C   0  0  0  0  0  0  0  0  0  0  0  0
   27.0522   -7.5445   -2.0719 N   0  0  0  0  0  0  0  0  0  0  0  0
   27.6336   -7.1559   -0.9416 C   0  0  0  0  0  0  0  0  0  0  0  0
   27.6851   -5.8319   -0.5349 C   0  0  0  0  0  0  0  0  0  0  0  0
   25.9077   -2.7639   -0.7562 C   0  0  0  0  0  0  0  0  0  0  0  0
   24.6119   -3.4107   -0.8600 C   0  0  0  0  0  0  0  0  0  0  0  0
   23.6887   -2.4572   -0.6185 C   0  0  0  0  0  0  0  0  0  0  0  0
   25.7500   -1.4502   -0.4354 N   0  0  0  0  0  0  0  0  0  0  0  0
   24.4217   -1.2336   -0.3566 C   0  0  0  0  0  0  0  0  0  0  0  0
   23.7812   -0.0109   -0.0693 C   0  0  0  0  0  0  0  0  0  0  0  0
   24.4133    1.2070    0.2460 C   0  0  0  0  0  0  0  0  0  0  0  0
   23.7658    2.4411    0.5187 C   0  0  0  0  0  0  0  0  0  0  0  0
   24.7289    3.3694    0.8025 C   0  0  0  0  0  0  0  0  0  0  0  0
   25.9952    2.7270    0.7184 C   0  0  0  0  0  0  0  0  0  0  0  0
   25.7529    1.4247    0.3692 N   0  0  0  0  0  0  0  0  0  0  0  0
   27.2551    3.3001    0.9213 C   0  0  0  0  0  0  0  0  0  0  0  0
   27.2821    4.7252    1.3251 C   0  0  0  0  0  0  0  0  0  0  0  0
   26.6770    5.1567    2.5053 C   0  0  0  0  0  0  0  0  0  0  0  0
   26.7316    6.5002    2.8413 C   0  0  0  0  0  0  0  0  0  0  0  0
   27.3331    7.4125    2.0848 N   0  0  0  0  0  0  0  0  0  0  0  0
   27.9101    7.0104    0.9568 C   0  0  0  0  0  0  0  0  0  0  0  0
   27.9132    5.6891    0.5390 C   0  0  0  0  0  0  0  0  0  0  0  0
   28.4738    2.6301    0.7698 C   0  0  0  0  0  0  0  0  0  0  0  0
   29.7749    3.2272    1.0288 C   0  0  0  0  0  0  0  0  0  0  0  0
   30.6915    2.2745    0.7652 C   0  0  0  0  0  0  0  0  0  0  0  0
   29.9514    1.0928    0.3583 C   0  0  0  0  0  0  0  0  0  0  0  0
   28.6188    1.3410    0.3819 N   0  0  0  0  0  0  0  0  0  0  0  0
   31.6536   -0.1068    0.0081 H   0  0  0  0  0  0  0  0  0  0  0  0
   31.6893   -2.6173   -0.8111 H   0  0  0  0  0  0  0  0  0  0  0  0
   29.8156   -4.4494   -1.3414 H   0  0  0  0  0  0  0  0  0  0  0  0
   27.8929   -0.8689   -0.2049 H   0  0  0  0  0  0  0  0  0  0  0  0
   26.0309   -4.5453   -3.1814 H   0  0  0  0  0  0  0  0  0  0  0  0
   26.0260   -6.9640   -3.7578 H   0  0  0  0  0  0  0  0  0  0  0  0
   28.0797   -7.9375   -0.3334 H   0  0  0  0  0  0  0  0  0  0  0  0
   28.1585   -5.5645    0.4025 H   0  0  0  0  0  0  0  0  0  0  0  0
   24.4519   -4.4551   -1.0731 H   0  0  0  0  0  0  0  0  0  0  0  0
   22.6145   -2.5494   -0.6038 H   0  0  0  0  0  0  0  0  0  0  0  0
   22.6984    2.5906    0.4936 H   0  0  0  0  0  0  0  0  0  0  0  0
   24.5791    4.4100    1.0396 H   0  0  0  0  0  0  0  0  0  0  0  0
   26.4772    0.7296    0.2211 H   0  0  0  0  0  0  0  0  0  0  0  0
   26.1866    4.4471    3.1611 H   0  0  0  0  0  0  0  0  0  0  0  0
   26.2722    6.8585    3.7580 H   0  0  0  0  0  0  0  0  0  0  0  0
   28.3911    7.7790    0.3589 H   0  0  0  0  0  0  0  0  0  0  0  0
   28.3850    5.4099   -0.3955 H   0  0  0  0  0  0  0  0  0  0  0  0
   29.9392    4.2344    1.3765 H   0  0  0  0  0  0  0  0  0  0  0  0
   31.7662    2.3325    0.8382 H   0  0  0  0  0  0  0  0  0  0  0  0
   19.8080    0.0239   -0.1053 C   0  0  0  0  0  0  0  0  0  0  0  0
   18.5796    0.0266   -0.1048 C   0  0  0  0  0  0  0  0  0  0  0  0
   17.2356    0.0241   -0.0918 C   0  0  0  0  0  0  0  0  0  0  0  0
   16.0117    0.0335   -0.0780 C   0  0  0  0  0  0  0  0  0  0  0  0
   21.1520    0.0166   -0.1008 C   0  0  0  0  0  0  0  0  0  0  0  0
   22.3759    0.0051   -0.0874 C   0  0  0  0  0  0  0  0  0  0  0  0
  1  2  4  0  0  0  0
  2  3  4  0  0  0  0
  3  4  2  0  0  0  0
  4  5  4  0  0  0  0
  2  6  4  0  0  0  0
  5  6  4  0  0  0  0
  5  7  4  0  0  0  0
  7  8  1  0  0  0  0
  8  9  4  0  0  0  0
  9 10  4  0  0  0  0
 10 11  4  0  0  0  0
 11 12  4  0  0  0  0
  8 13  4  0  0  0  0
 12 13  4  0  0  0  0
  7 14  4  0  0  0  0
 14 15  1  0  0  0  0
 15 16  2  0  0  0  0
 14 17  4  0  0  0  0
 16 18  1  0  0  0  0
 17 18  4  0  0  0  0
 18 19  4  0  0  0  0
 19 20  4  0  0  0  0
 20 21  4  0  0  0  0
 21 22  2  0  0  0  0
 22 23  4  0  0  0  0
 20 24  4  0  0  0  0
 23 24  4  0  0  0  0
 23 25  4  0  0  0  0
 25 26  1  0  0  0  0
 26 27  4  0  0  0  0
 27 28  4  0  0  0  0
 28 29  4  0  0  0  0
 29 30  4  0  0  0  0
 26 31  4  0  0  0  0
 30 31  4  0  0  0  0
 25 32  4  0  0  0  0
 32 33  1  0  0  0  0
 33 34  2  0  0  0  0
  1 35  4  0  0  0  0
 34 35  1  0  0  0  0
 32 36  4  0  0  0  0
 35 36  4  0  0  0  0
  1 37  1  0  0  0  0
  3 38  1  0  0  0  0
  4 39  1  0  0  0  0
  6 40  1  0  0  0  0
  9 41  1  0  0  0  0
 10 42  1  0  0  0  0
 12 43  1  0  0  0  0
 13 44  1  0  0  0  0
 15 45  1  0  0  0  0
 16 46  1  0  0  0  0
 21 47  1  0  0  0  0
 22 48  1  0  0  0  0
 24 49  1  0  0  0  0
 27 50  1  0  0  0  0
 28 51  1  0  0  0  0
 30 52  1  0  0  0  0
 31 53  1  0  0  0  0
 33 54  1  0  0  0  0
 34 55  1  0  0  0  0
 56 57  4  0  0  0  0
 57 58  4  0  0  0  0
 58 59  2  0  0  0  0
 59 60  4  0  0  0  0
 57 61  4  0  0  0  0
 60 61  4  0  0  0  0
 60 62  4  0  0  0  0
 62 63  1  0  0  0  0
 63 64  4  0  0  0  0
 64 65  4  0  0  0  0
 65 66  4  0  0  0  0
 66 67  4  0  0  0  0
 63 68  4  0  0  0  0
 67 68  4  0  0  0  0
 62 69  4  0  0  0  0
 69 70  1  0  0  0  0
 70 71  2  0  0  0  0
 69 72  4  0  0  0  0
 71 73  1  0  0  0  0
 72 73  4  0  0  0  0
 73 74  4  0  0  0  0
 74 75  4  0  0  0  0
 75 76  4  0  0  0  0
 76 77  2  0  0  0  0
 77 78  4  0  0  0  0
 75 79  4  0  0  0  0
 78 79  4  0  0  0  0
 78 80  4  0  0  0  0
 80 81  1  0  0  0  0
 81 82  4  0  0  0  0
 82 83  4  0  0  0  0
 83 84  4  0  0  0  0
 84 85  4  0  0  0  0
 81 86  4  0  0  0  0
 85 86  4  0  0  0  0
 80 87  4  0  0  0  0
 87 88  1  0  0  0  0
 88 89  2  0  0  0  0
 56 90  4  0  0  0  0
 89 90  1  0  0  0  0
 87 91  4  0  0  0  0
 90 91  4  0  0  0  0
 56 92  1  0  0  0  0
 58 93  1  0  0  0  0
 59 94  1  0  0  0  0
 61 95  1  0  0  0  0
 64 96  1  0  0  0  0
 65 97  1  0  0  0  0
 67 98  1  0  0  0  0
 68 99  1  0  0  0  0
 70100  1  0  0  0  0
 71101  1  0  0  0  0
 76102  1  0  0  0  0
 77103  1  0  0  0  0
 79104  1  0  0  0  0
 82105  1  0  0  0  0
 83106  1  0  0  0  0
 85107  1  0  0  0  0
 86108  1  0  0  0  0
 88109  1  0  0  0  0
 89110  1  0  0  0  0
111112  3  0  0  0  0
112113  4  0  0  0  0
 19114  4  0  0  0  0
113114  3  0  0  0  0
111115  4  0  0  0  0
 74116  4  0  0  0  0
115116  3  0  0  0  0
M  END
