 xtb: 6.5.1 (b24c23e)
          07302205053D

250297  0     0  0            999 V2000
   48.4822    0.0004   -0.0647 Ni  0  0  0  0  0  0  0  0  0  0  0  0
   45.0906   -0.0200   -0.1991 C   0  0  0  0  0  0  0  0  0  0  0  0
   45.7476   -1.2317   -0.2427 C   0  0  0  0  0  0  0  0  0  0  0  0
   45.0754   -2.4935   -0.3089 C   0  0  0  0  0  0  0  0  0  0  0  0
   46.0365   -3.4395   -0.4199 C   0  0  0  0  0  0  0  0  0  0  0  0
   47.2950   -2.7519   -0.4365 C   0  0  0  0  0  0  0  0  0  0  0  0
   47.1090   -1.4009   -0.2891 N   0  0  0  0  0  0  0  0  0  0  0  0
   48.5199   -3.3806   -0.6215 C   0  0  0  0  0  0  0  0  0  0  0  0
   48.5373   -4.8401   -0.8728 C   0  0  0  0  0  0  0  0  0  0  0  0
   49.1902   -5.7034    0.0118 C   0  0  0  0  0  0  0  0  0  0  0  0
   49.2108   -7.0662   -0.2235 C   0  0  0  0  0  0  0  0  0  0  0  0
   48.5772   -7.5690   -1.3563 C   0  0  0  0  0  0  0  0  0  0  0  0
   48.6006   -8.9990   -1.6115 N   0  0  0  0  0  0  0  0  0  0  0  0
   48.0305   -9.3990   -2.5939 O   0  0  0  0  0  0  0  0  0  0  0  0
   49.1891   -9.6958   -0.8255 O   0  0  0  0  0  0  0  0  0  0  0  0
   47.9226   -6.7263   -2.2499 C   0  0  0  0  0  0  0  0  0  0  0  0
   47.9033   -5.3658   -2.0025 C   0  0  0  0  0  0  0  0  0  0  0  0
   49.7286   -2.6969   -0.5988 C   0  0  0  0  0  0  0  0  0  0  0  0
   50.9957   -3.3119   -0.8565 C   0  0  0  0  0  0  0  0  0  0  0  0
   51.9368   -2.3526   -0.6887 C   0  0  0  0  0  0  0  0  0  0  0  0
   49.8905   -1.3611   -0.3112 N   0  0  0  0  0  0  0  0  0  0  0  0
   51.2428   -1.1550   -0.3360 C   0  0  0  0  0  0  0  0  0  0  0  0
   51.8952    0.0341   -0.0010 C   0  0  0  0  0  0  0  0  0  0  0  0
   51.2082    1.2048    0.3289 C   0  0  0  0  0  0  0  0  0  0  0  0
   51.8642    2.4070    0.7345 C   0  0  0  0  0  0  0  0  0  0  0  0
   50.8969    3.3404    0.9007 C   0  0  0  0  0  0  0  0  0  0  0  0
   49.6532    2.7076    0.5797 C   0  0  0  0  0  0  0  0  0  0  0  0
   49.8534    1.3831    0.2646 N   0  0  0  0  0  0  0  0  0  0  0  0
   48.4331    3.3703    0.5539 C   0  0  0  0  0  0  0  0  0  0  0  0
   48.4080    4.8242    0.8359 C   0  0  0  0  0  0  0  0  0  0  0  0
   47.6983    5.3144    1.9361 C   0  0  0  0  0  0  0  0  0  0  0  0
   47.6722    6.6701    2.2079 C   0  0  0  0  0  0  0  0  0  0  0  0
   48.3567    7.5438    1.3680 C   0  0  0  0  0  0  0  0  0  0  0  0
   48.3306    8.9692    1.6476 N   0  0  0  0  0  0  0  0  0  0  0  0
   47.6993    9.3378    2.6044 O   0  0  0  0  0  0  0  0  0  0  0  0
   48.9420    9.6939    0.9054 O   0  0  0  0  0  0  0  0  0  0  0  0
   49.0656    7.0764    0.2651 C   0  0  0  0  0  0  0  0  0  0  0  0
   49.0904    5.7181    0.0056 C   0  0  0  0  0  0  0  0  0  0  0  0
   47.2335    2.7297    0.2699 C   0  0  0  0  0  0  0  0  0  0  0  0
   45.9716    3.4035    0.1667 C   0  0  0  0  0  0  0  0  0  0  0  0
   45.0362    2.4508   -0.0526 C   0  0  0  0  0  0  0  0  0  0  0  0
   45.7275    1.1981   -0.0894 C   0  0  0  0  0  0  0  0  0  0  0  0
   47.0780    1.3809    0.0762 N   0  0  0  0  0  0  0  0  0  0  0  0
   44.0080   -0.0260   -0.2465 H   0  0  0  0  0  0  0  0  0  0  0  0
   44.0051   -2.6183   -0.2709 H   0  0  0  0  0  0  0  0  0  0  0  0
   45.9176   -4.5090   -0.4813 H   0  0  0  0  0  0  0  0  0  0  0  0
   49.6709   -5.2999    0.8954 H   0  0  0  0  0  0  0  0  0  0  0  0
   49.7094   -7.7444    0.4584 H   0  0  0  0  0  0  0  0  0  0  0  0
   47.4406   -7.1426   -3.1262 H   0  0  0  0  0  0  0  0  0  0  0  0
   47.4078   -4.6971   -2.6966 H   0  0  0  0  0  0  0  0  0  0  0  0
   51.1367   -4.3427   -1.1373 H   0  0  0  0  0  0  0  0  0  0  0  0
   53.0069   -2.4335   -0.7899 H   0  0  0  0  0  0  0  0  0  0  0  0
   52.9284    2.5068    0.8739 H   0  0  0  0  0  0  0  0  0  0  0  0
   51.0057    4.3651    1.2160 H   0  0  0  0  0  0  0  0  0  0  0  0
   47.1780    4.6220    2.5876 H   0  0  0  0  0  0  0  0  0  0  0  0
   47.1309    7.0594    3.0619 H   0  0  0  0  0  0  0  0  0  0  0  0
   49.5858    7.7781   -0.3757 H   0  0  0  0  0  0  0  0  0  0  0  0
   49.6293    5.3421   -0.8562 H   0  0  0  0  0  0  0  0  0  0  0  0
   45.8342    4.4696    0.2463 H   0  0  0  0  0  0  0  0  0  0  0  0
   43.9715    2.5650   -0.1787 H   0  0  0  0  0  0  0  0  0  0  0  0
   88.7861    0.0618   -0.0223 Ni  0  0  0  0  0  0  0  0  0  0  0  0
   92.1761    0.1252   -0.1621 C   0  0  0  0  0  0  0  0  0  0  0  0
   91.5235    1.2657    0.2567 C   0  0  0  0  0  0  0  0  0  0  0  0
   92.1993    2.4597    0.6642 C   0  0  0  0  0  0  0  0  0  0  0  0
   91.2411    3.3826    0.9116 C   0  0  0  0  0  0  0  0  0  0  0  0
   89.9806    2.7542    0.6411 C   0  0  0  0  0  0  0  0  0  0  0  0
   90.1626    1.4441    0.2779 N   0  0  0  0  0  0  0  0  0  0  0  0
   88.7575    3.4106    0.6987 C   0  0  0  0  0  0  0  0  0  0  0  0
   88.7425    4.8594    1.0054 C   0  0  0  0  0  0  0  0  0  0  0  0
   88.0860    5.3332    2.1451 C   0  0  0  0  0  0  0  0  0  0  0  0
   88.0665    6.6858    2.4332 C   0  0  0  0  0  0  0  0  0  0  0  0
   88.7048    7.5726    1.5709 C   0  0  0  0  0  0  0  0  0  0  0  0
   88.6822    8.9950    1.8656 N   0  0  0  0  0  0  0  0  0  0  0  0
   89.2574    9.7307    1.1055 O   0  0  0  0  0  0  0  0  0  0  0  0
   88.0902    9.3502    2.8521 O   0  0  0  0  0  0  0  0  0  0  0  0
   89.3631    7.1213    0.4307 C   0  0  0  0  0  0  0  0  0  0  0  0
   89.3814    5.7662    0.1546 C   0  0  0  0  0  0  0  0  0  0  0  0
   87.5471    2.7688    0.4704 C   0  0  0  0  0  0  0  0  0  0  0  0
   86.2810    3.4372    0.4567 C   0  0  0  0  0  0  0  0  0  0  0  0
   85.3372    2.4825    0.2768 C   0  0  0  0  0  0  0  0  0  0  0  0
   87.3819    1.4192    0.2592 N   0  0  0  0  0  0  0  0  0  0  0  0
   86.0287    1.2370    0.1738 C   0  0  0  0  0  0  0  0  0  0  0  0
   85.3749    0.0057    0.0791 C   0  0  0  0  0  0  0  0  0  0  0  0
   86.0617   -1.2051   -0.0431 C   0  0  0  0  0  0  0  0  0  0  0  0
   85.4072   -2.4737   -0.0918 C   0  0  0  0  0  0  0  0  0  0  0  0
   86.3708   -3.3999   -0.3118 C   0  0  0  0  0  0  0  0  0  0  0  0
   87.6107   -2.6905   -0.4091 C   0  0  0  0  0  0  0  0  0  0  0  0
   87.4131   -1.3443   -0.2033 N   0  0  0  0  0  0  0  0  0  0  0  0
   88.8243   -3.2928   -0.7149 C   0  0  0  0  0  0  0  0  0  0  0  0
   88.8409   -4.7439   -1.0109 C   0  0  0  0  0  0  0  0  0  0  0  0
   89.5687   -5.6204   -0.2008 C   0  0  0  0  0  0  0  0  0  0  0  0
   89.5850   -6.9768   -0.4707 C   0  0  0  0  0  0  0  0  0  0  0  0
   88.8723   -7.4595   -1.5645 C   0  0  0  0  0  0  0  0  0  0  0  0
   88.8882   -8.8831   -1.8543 N   0  0  0  0  0  0  0  0  0  0  0  0
   89.5358   -9.5924   -1.1282 O   0  0  0  0  0  0  0  0  0  0  0  0
   88.2530   -9.2656   -2.8031 O   0  0  0  0  0  0  0  0  0  0  0  0
   88.1447   -6.6031   -2.3856 C   0  0  0  0  0  0  0  0  0  0  0  0
   88.1297   -5.2493   -2.1032 C   0  0  0  0  0  0  0  0  0  0  0  0
   90.0231   -2.5921   -0.7584 C   0  0  0  0  0  0  0  0  0  0  0  0
   91.2799   -3.1764   -1.1272 C   0  0  0  0  0  0  0  0  0  0  0  0
   92.2189   -2.2143   -0.9734 C   0  0  0  0  0  0  0  0  0  0  0  0
   91.5344   -1.0417   -0.5207 C   0  0  0  0  0  0  0  0  0  0  0  0
   90.1844   -1.2716   -0.4243 N   0  0  0  0  0  0  0  0  0  0  0  0
   93.2585    0.1461   -0.2090 H   0  0  0  0  0  0  0  0  0  0  0  0
   93.2699    2.5584    0.7453 H   0  0  0  0  0  0  0  0  0  0  0  0
   91.3632    4.3983    1.2507 H   0  0  0  0  0  0  0  0  0  0  0  0
   87.6016    4.6310    2.8135 H   0  0  0  0  0  0  0  0  0  0  0  0
   87.5652    7.0626    3.3166 H   0  0  0  0  0  0  0  0  0  0  0  0
   89.8487    7.8328   -0.2263 H   0  0  0  0  0  0  0  0  0  0  0  0
   89.8797    5.4027   -0.7365 H   0  0  0  0  0  0  0  0  0  0  0  0
   86.1422    4.5005    0.5639 H   0  0  0  0  0  0  0  0  0  0  0  0
   84.2668    2.5956    0.2187 H   0  0  0  0  0  0  0  0  0  0  0  0
   84.3462   -2.6204    0.0296 H   0  0  0  0  0  0  0  0  0  0  0  0
   86.2622   -4.4687   -0.3971 H   0  0  0  0  0  0  0  0  0  0  0  0
   90.1108   -5.2326    0.6538 H   0  0  0  0  0  0  0  0  0  0  0  0
   90.1401   -7.6653    0.1550 H   0  0  0  0  0  0  0  0  0  0  0  0
   87.6023   -7.0039   -3.2335 H   0  0  0  0  0  0  0  0  0  0  0  0
   87.5759   -4.5699   -2.7407 H   0  0  0  0  0  0  0  0  0  0  0  0
   91.4121   -4.1917   -1.4638 H   0  0  0  0  0  0  0  0  0  0  0  0
   93.2817   -2.2734   -1.1446 H   0  0  0  0  0  0  0  0  0  0  0  0
   54.5229    0.0553    0.0121 C   0  0  0  0  0  0  0  0  0  0  0  0
   53.3017    0.0490    0.0104 C   0  0  0  0  0  0  0  0  0  0  0  0
   55.8739    0.0591    0.0095 C   0  0  0  0  0  0  0  0  0  0  0  0
   57.0952    0.0533    0.0029 C   0  0  0  0  0  0  0  0  0  0  0  0
   67.9622    0.0416    0.0659 C   0  0  0  0  0  0  0  0  0  0  0  0
   66.7406    0.0465    0.0686 C   0  0  0  0  0  0  0  0  0  0  0  0
   69.3125    0.0323    0.0606 C   0  0  0  0  0  0  0  0  0  0  0  0
   70.5339    0.0226    0.0465 C   0  0  0  0  0  0  0  0  0  0  0  0
   81.3978   -0.0247    0.1220 C   0  0  0  0  0  0  0  0  0  0  0  0
   80.1762   -0.0207    0.1161 C   0  0  0  0  0  0  0  0  0  0  0  0
   82.7481   -0.0207    0.1189 C   0  0  0  0  0  0  0  0  0  0  0  0
   83.9695   -0.0133    0.1063 C   0  0  0  0  0  0  0  0  0  0  0  0
   61.9185    0.0471    0.0007 Ni  0  0  0  0  0  0  0  0  0  0  0  0
   58.5013    0.0506   -0.0031 C   0  0  0  0  0  0  0  0  0  0  0  0
   59.1719   -1.1593    0.1937 C   0  0  0  0  0  0  0  0  0  0  0  0
   58.4989   -2.3967    0.4292 C   0  0  0  0  0  0  0  0  0  0  0  0
   59.4520   -3.3593    0.4505 C   0  0  0  0  0  0  0  0  0  0  0  0
   60.7041   -2.7048    0.2218 C   0  0  0  0  0  0  0  0  0  0  0  0
   60.5242   -1.3461    0.1039 N   0  0  0  0  0  0  0  0  0  0  0  0
   61.9155   -3.3730    0.0971 C   0  0  0  0  0  0  0  0  0  0  0  0
   61.9104   -4.8538    0.1256 C   0  0  0  0  0  0  0  0  0  0  0  0
   62.5971   -5.5446    1.1282 C   0  0  0  0  0  0  0  0  0  0  0  0
   62.5917   -6.9274    1.1580 C   0  0  0  0  0  0  0  0  0  0  0  0
   61.8990   -7.6248    0.1727 C   0  0  0  0  0  0  0  0  0  0  0  0
   61.8928   -9.0778    0.1976 N   0  0  0  0  0  0  0  0  0  0  0  0
   61.2890   -9.6470   -0.6745 O   0  0  0  0  0  0  0  0  0  0  0  0
   62.4923   -9.6219    1.0886 O   0  0  0  0  0  0  0  0  0  0  0  0
   61.2114   -6.9558   -0.8357 C   0  0  0  0  0  0  0  0  0  0  0  0
   61.2173   -5.5729   -0.8526 C   0  0  0  0  0  0  0  0  0  0  0  0
   63.1296   -2.7155   -0.0506 C   0  0  0  0  0  0  0  0  0  0  0  0
   64.3841   -3.3831   -0.2220 C   0  0  0  0  0  0  0  0  0  0  0  0
   65.3396   -2.4227   -0.2268 C   0  0  0  0  0  0  0  0  0  0  0  0
   63.3116   -1.3524    0.0010 N   0  0  0  0  0  0  0  0  0  0  0  0
   64.6654   -1.1733   -0.0720 C   0  0  0  0  0  0  0  0  0  0  0  0
   65.3353    0.0468    0.0552 C   0  0  0  0  0  0  0  0  0  0  0  0
   64.6614    1.2672    0.1533 C   0  0  0  0  0  0  0  0  0  0  0  0
   65.3303    2.5191    0.3113 C   0  0  0  0  0  0  0  0  0  0  0  0
   64.3772    3.4796    0.2461 C   0  0  0  0  0  0  0  0  0  0  0  0
   63.1296    2.8091    0.0401 C   0  0  0  0  0  0  0  0  0  0  0  0
   63.3113    1.4454    0.0256 N   0  0  0  0  0  0  0  0  0  0  0  0
   61.9221    3.4644   -0.1632 C   0  0  0  0  0  0  0  0  0  0  0  0
   61.9255    4.9433   -0.2431 C   0  0  0  0  0  0  0  0  0  0  0  0
   62.6442    5.5921   -1.2515 C   0  0  0  0  0  0  0  0  0  0  0  0
   62.6475    6.9727   -1.3344 C   0  0  0  0  0  0  0  0  0  0  0  0
   61.9309    7.7104   -0.3967 C   0  0  0  0  0  0  0  0  0  0  0  0
   61.9327    9.1614   -0.4778 N   0  0  0  0  0  0  0  0  0  0  0  0
   62.5733    9.6687   -1.3620 O   0  0  0  0  0  0  0  0  0  0  0  0
   61.2927    9.7657    0.3434 O   0  0  0  0  0  0  0  0  0  0  0  0
   61.2125    7.0838    0.6173 C   0  0  0  0  0  0  0  0  0  0  0  0
   61.2106    5.7025    0.6879 C   0  0  0  0  0  0  0  0  0  0  0  0
   60.7115    2.7956   -0.2899 C   0  0  0  0  0  0  0  0  0  0  0  0
   59.4616    3.4465   -0.5409 C   0  0  0  0  0  0  0  0  0  0  0  0
   58.5051    2.4887   -0.4855 C   0  0  0  0  0  0  0  0  0  0  0  0
   59.1746    1.2562   -0.2168 C   0  0  0  0  0  0  0  0  0  0  0  0
   60.5274    1.4410   -0.1340 N   0  0  0  0  0  0  0  0  0  0  0  0
   57.4335   -2.5000    0.5564 H   0  0  0  0  0  0  0  0  0  0  0  0
   59.3285   -4.4175    0.6128 H   0  0  0  0  0  0  0  0  0  0  0  0
   63.1235   -4.9893    1.8956 H   0  0  0  0  0  0  0  0  0  0  0  0
   63.1150   -7.4725    1.9343 H   0  0  0  0  0  0  0  0  0  0  0  0
   60.6832   -7.5225   -1.5930 H   0  0  0  0  0  0  0  0  0  0  0  0
   60.6943   -5.0393   -1.6376 H   0  0  0  0  0  0  0  0  0  0  0  0
   64.5082   -4.4482   -0.3284 H   0  0  0  0  0  0  0  0  0  0  0  0
   66.4071   -2.5347   -0.3256 H   0  0  0  0  0  0  0  0  0  0  0  0
   66.3931    2.6321    0.4515 H   0  0  0  0  0  0  0  0  0  0  0  0
   64.4978    4.5469    0.3348 H   0  0  0  0  0  0  0  0  0  0  0  0
   63.1891    5.0052   -1.9816 H   0  0  0  0  0  0  0  0  0  0  0  0
   63.1954    7.4851   -2.1161 H   0  0  0  0  0  0  0  0  0  0  0  0
   60.6668    7.6816    1.3375 H   0  0  0  0  0  0  0  0  0  0  0  0
   60.6644    5.2022    1.4790 H   0  0  0  0  0  0  0  0  0  0  0  0
   59.3412    4.4992   -0.7372 H   0  0  0  0  0  0  0  0  0  0  0  0
   57.4399    2.5915   -0.6149 H   0  0  0  0  0  0  0  0  0  0  0  0
   75.3556   -0.0036    0.0191 Ni  0  0  0  0  0  0  0  0  0  0  0  0
   71.9391    0.0139    0.0306 C   0  0  0  0  0  0  0  0  0  0  0  0
   72.6063   -1.1983    0.2270 C   0  0  0  0  0  0  0  0  0  0  0  0
   71.9302   -2.4334    0.4657 C   0  0  0  0  0  0  0  0  0  0  0  0
   72.8791   -3.4004    0.4740 C   0  0  0  0  0  0  0  0  0  0  0  0
   74.1320   -2.7507    0.2360 C   0  0  0  0  0  0  0  0  0  0  0  0
   73.9567   -1.3907    0.1246 N   0  0  0  0  0  0  0  0  0  0  0  0
   75.3395   -3.4228    0.0977 C   0  0  0  0  0  0  0  0  0  0  0  0
   75.3295   -4.9037    0.1198 C   0  0  0  0  0  0  0  0  0  0  0  0
   76.0197   -5.6001    1.1161 C   0  0  0  0  0  0  0  0  0  0  0  0
   76.0108   -6.9830    1.1408 C   0  0  0  0  0  0  0  0  0  0  0  0
   75.3111   -7.6747    0.1565 C   0  0  0  0  0  0  0  0  0  0  0  0
   75.3026   -9.1278    0.1750 N   0  0  0  0  0  0  0  0  0  0  0  0
   74.6915   -9.6922   -0.6953 O   0  0  0  0  0  0  0  0  0  0  0  0
   75.9077   -9.6768    1.0590 O   0  0  0  0  0  0  0  0  0  0  0  0
   74.6193   -7.0001   -0.8452 C   0  0  0  0  0  0  0  0  0  0  0  0
   74.6285   -5.6171   -0.8568 C   0  0  0  0  0  0  0  0  0  0  0  0
   76.5555   -2.7688   -0.0520 C   0  0  0  0  0  0  0  0  0  0  0  0
   77.8073   -3.4393   -0.2310 C   0  0  0  0  0  0  0  0  0  0  0  0
   78.7667   -2.4827   -0.2238 C   0  0  0  0  0  0  0  0  0  0  0  0
   76.7427   -1.4072    0.0129 N   0  0  0  0  0  0  0  0  0  0  0  0
   78.0975   -1.2325   -0.0555 C   0  0  0  0  0  0  0  0  0  0  0  0
   78.7711   -0.0167    0.0921 C   0  0  0  0  0  0  0  0  0  0  0  0
   78.1003    1.2051    0.1960 C   0  0  0  0  0  0  0  0  0  0  0  0
   78.7715    2.4545    0.3624 C   0  0  0  0  0  0  0  0  0  0  0  0
   77.8229    3.4187    0.2842 C   0  0  0  0  0  0  0  0  0  0  0  0
   76.5753    2.7527    0.0644 C   0  0  0  0  0  0  0  0  0  0  0  0
   76.7522    1.3884    0.0533 N   0  0  0  0  0  0  0  0  0  0  0  0
   75.3721    3.4122   -0.1523 C   0  0  0  0  0  0  0  0  0  0  0  0
   75.3826    4.8908   -0.2351 C   0  0  0  0  0  0  0  0  0  0  0  0
   76.1110    5.5353   -1.2392 C   0  0  0  0  0  0  0  0  0  0  0  0
   76.1228    6.9159   -1.3221 C   0  0  0  0  0  0  0  0  0  0  0  0
   75.4053    7.6579   -0.3884 C   0  0  0  0  0  0  0  0  0  0  0  0
   75.4177    9.1088   -0.4683 N   0  0  0  0  0  0  0  0  0  0  0  0
   76.0681    9.6124   -1.3473 O   0  0  0  0  0  0  0  0  0  0  0  0
   74.7770    9.7169    0.3497 O   0  0  0  0  0  0  0  0  0  0  0  0
   74.6767    7.0355    0.6210 C   0  0  0  0  0  0  0  0  0  0  0  0
   74.6662    5.6543    0.6913 C   0  0  0  0  0  0  0  0  0  0  0  0
   74.1597    2.7479   -0.2829 C   0  0  0  0  0  0  0  0  0  0  0  0
   72.9124    3.4018   -0.5388 C   0  0  0  0  0  0  0  0  0  0  0  0
   71.9518    2.4486   -0.4742 C   0  0  0  0  0  0  0  0  0  0  0  0
   72.6163    1.2155   -0.1964 C   0  0  0  0  0  0  0  0  0  0  0  0
   73.9697    1.3949   -0.1178 N   0  0  0  0  0  0  0  0  0  0  0  0
   70.8656   -2.5324    0.6026 H   0  0  0  0  0  0  0  0  0  0  0  0
   72.7525   -4.4587    0.6331 H   0  0  0  0  0  0  0  0  0  0  0  0
   76.5518   -5.0490    1.8827 H   0  0  0  0  0  0  0  0  0  0  0  0
   76.5368   -7.5322    1.9123 H   0  0  0  0  0  0  0  0  0  0  0  0
   74.0855   -7.5626   -1.6016 H   0  0  0  0  0  0  0  0  0  0  0  0
   74.1021   -5.0791   -1.6365 H   0  0  0  0  0  0  0  0  0  0  0  0
   77.9272   -4.5037   -0.3492 H   0  0  0  0  0  0  0  0  0  0  0  0
   79.8339   -2.5978   -0.3224 H   0  0  0  0  0  0  0  0  0  0  0  0
   79.8330    2.5640    0.5149 H   0  0  0  0  0  0  0  0  0  0  0  0
   77.9464    4.4856    0.3726 H   0  0  0  0  0  0  0  0  0  0  0  0
   76.6573    4.9452   -1.9657 H   0  0  0  0  0  0  0  0  0  0  0  0
   76.6785    7.4251   -2.1003 H   0  0  0  0  0  0  0  0  0  0  0  0
   74.1305    7.6365    1.3381 H   0  0  0  0  0  0  0  0  0  0  0  0
   74.1123    5.1571    1.4791 H   0  0  0  0  0  0  0  0  0  0  0  0
   72.7963    4.4535   -0.7433 H   0  0  0  0  0  0  0  0  0  0  0  0
   70.8869    2.5550   -0.6031 H   0  0  0  0  0  0  0  0  0  0  0  0
  2  3  4  0  0  0  0
  3  4  4  0  0  0  0
  4  5  2  0  0  0  0
  5  6  4  0  0  0  0
  1  7  1  0  0  0  0
  3  7  4  0  0  0  0
  6  7  4  0  0  0  0
  6  8  4  0  0  0  0
  8  9  1  0  0  0  0
  9 10  4  0  0  0  0
 10 11  4  0  0  0  0
 11 12  4  0  0  0  0
 12 13  1  0  0  0  0
 13 14  2  0  0  0  0
 13 15  2  0  0  0  0
 14 15  1  0  0  0  0
 12 16  4  0  0  0  0
  9 17  4  0  0  0  0
 16 17  4  0  0  0  0
  8 18  4  0  0  0  0
 18 19  4  0  0  0  0
 19 20  2  0  0  0  0
  1 21  1  0  0  0  0
 18 21  4  0  0  0  0
 20 22  4  0  0  0  0
 21 22  4  0  0  0  0
 22 23  4  0  0  0  0
 23 24  4  0  0  0  0
 24 25  4  0  0  0  0
 25 26  2  0  0  0  0
 26 27  4  0  0  0  0
  1 28  1  0  0  0  0
 24 28  4  0  0  0  0
 27 28  4  0  0  0  0
 27 29  4  0  0  0  0
 29 30  1  0  0  0  0
 30 31  4  0  0  0  0
 31 32  4  0  0  0  0
 32 33  4  0  0  0  0
 33 34  1  0  0  0  0
 34 35  2  0  0  0  0
 34 36  2  0  0  0  0
 35 36  1  0  0  0  0
 33 37  4  0  0  0  0
 30 38  4  0  0  0  0
 37 38  4  0  0  0  0
 29 39  4  0  0  0  0
 39 40  4  0  0  0  0
 40 41  2  0  0  0  0
  2 42  4  0  0  0  0
 41 42  4  0  0  0  0
  1 43  1  0  0  0  0
 39 43  4  0  0  0  0
 42 43  4  0  0  0  0
  2 44  1  0  0  0  0
  4 45  1  0  0  0  0
  5 46  1  0  0  0  0
 10 47  1  0  0  0  0
 11 48  1  0  0  0  0
 16 49  1  0  0  0  0
 17 50  1  0  0  0  0
 19 51  1  0  0  0  0
 20 52  1  0  0  0  0
 25 53  1  0  0  0  0
 26 54  1  0  0  0  0
 31 55  1  0  0  0  0
 32 56  1  0  0  0  0
 37 57  1  0  0  0  0
 38 58  1  0  0  0  0
 40 59  1  0  0  0  0
 41 60  1  0  0  0  0
 62 63  4  0  0  0  0
 63 64  4  0  0  0  0
 64 65  2  0  0  0  0
 65 66  4  0  0  0  0
 61 67  1  0  0  0  0
 63 67  4  0  0  0  0
 66 67  4  0  0  0  0
 66 68  4  0  0  0  0
 68 69  1  0  0  0  0
 69 70  4  0  0  0  0
 70 71  4  0  0  0  0
 71 72  4  0  0  0  0
 72 73  1  0  0  0  0
 73 74  2  0  0  0  0
 73 75  2  0  0  0  0
 74 75  1  0  0  0  0
 72 76  4  0  0  0  0
 69 77  4  0  0  0  0
 76 77  4  0  0  0  0
 68 78  4  0  0  0  0
 78 79  4  0  0  0  0
 79 80  2  0  0  0  0
 61 81  1  0  0  0  0
 78 81  4  0  0  0  0
 80 82  4  0  0  0  0
 81 82  4  0  0  0  0
 82 83  4  0  0  0  0
 83 84  4  0  0  0  0
 84 85  4  0  0  0  0
 85 86  2  0  0  0  0
 86 87  4  0  0  0  0
 61 88  1  0  0  0  0
 84 88  4  0  0  0  0
 87 88  4  0  0  0  0
 87 89  4  0  0  0  0
 89 90  1  0  0  0  0
 90 91  4  0  0  0  0
 91 92  4  0  0  0  0
 92 93  4  0  0  0  0
 93 94  1  0  0  0  0
 94 95  2  0  0  0  0
 94 96  2  0  0  0  0
 95 96  1  0  0  0  0
 93 97  4  0  0  0  0
 90 98  4  0  0  0  0
 97 98  4  0  0  0  0
 89 99  4  0  0  0  0
 99100  4  0  0  0  0
100101  2  0  0  0  0
 62102  4  0  0  0  0
101102  4  0  0  0  0
 61103  1  0  0  0  0
 99103  4  0  0  0  0
102103  4  0  0  0  0
 62104  1  0  0  0  0
 64105  1  0  0  0  0
 65106  1  0  0  0  0
 70107  1  0  0  0  0
 71108  1  0  0  0  0
 76109  1  0  0  0  0
 77110  1  0  0  0  0
 79111  1  0  0  0  0
 80112  1  0  0  0  0
 85113  1  0  0  0  0
 86114  1  0  0  0  0
 91115  1  0  0  0  0
 92116  1  0  0  0  0
 97117  1  0  0  0  0
 98118  1  0  0  0  0
100119  1  0  0  0  0
101120  1  0  0  0  0
 23122  4  0  0  0  0
121122  3  0  0  0  0
121123  4  0  0  0  0
123124  3  0  0  0  0
125126  3  0  0  0  0
125127  4  0  0  0  0
127128  3  0  0  0  0
129130  3  0  0  0  0
129131  4  0  0  0  0
 83132  4  0  0  0  0
131132  3  0  0  0  0
124134  4  0  0  0  0
134135  4  0  0  0  0
135136  4  0  0  0  0
136137  2  0  0  0  0
137138  4  0  0  0  0
133139  1  0  0  0  0
135139  4  0  0  0  0
138139  4  0  0  0  0
138140  4  0  0  0  0
140141  1  0  0  0  0
141142  4  0  0  0  0
142143  4  0  0  0  0
143144  4  0  0  0  0
144145  1  0  0  0  0
145146  2  0  0  0  0
145147  2  0  0  0  0
146147  1  0  0  0  0
144148  4  0  0  0  0
141149  4  0  0  0  0
148149  4  0  0  0  0
140150  4  0  0  0  0
150151  4  0  0  0  0
151152  2  0  0  0  0
133153  1  0  0  0  0
150153  4  0  0  0  0
152154  4  0  0  0  0
153154  4  0  0  0  0
126155  4  0  0  0  0
154155  4  0  0  0  0
155156  4  0  0  0  0
156157  4  0  0  0  0
157158  2  0  0  0  0
158159  4  0  0  0  0
133160  1  0  0  0  0
156160  4  0  0  0  0
159160  4  0  0  0  0
159161  4  0  0  0  0
161162  1  0  0  0  0
162163  4  0  0  0  0
163164  4  0  0  0  0
164165  4  0  0  0  0
165166  1  0  0  0  0
166167  2  0  0  0  0
166168  2  0  0  0  0
167168  1  0  0  0  0
165169  4  0  0  0  0
162170  4  0  0  0  0
169170  4  0  0  0  0
161171  4  0  0  0  0
171172  4  0  0  0  0
172173  2  0  0  0  0
134174  4  0  0  0  0
173174  4  0  0  0  0
133175  1  0  0  0  0
171175  4  0  0  0  0
174175  4  0  0  0  0
136176  1  0  0  0  0
137177  1  0  0  0  0
142178  1  0  0  0  0
143179  1  0  0  0  0
148180  1  0  0  0  0
149181  1  0  0  0  0
151182  1  0  0  0  0
152183  1  0  0  0  0
157184  1  0  0  0  0
158185  1  0  0  0  0
163186  1  0  0  0  0
164187  1  0  0  0  0
169188  1  0  0  0  0
170189  1  0  0  0  0
172190  1  0  0  0  0
173191  1  0  0  0  0
128193  4  0  0  0  0
193194  4  0  0  0  0
194195  4  0  0  0  0
195196  2  0  0  0  0
196197  4  0  0  0  0
192198  1  0  0  0  0
194198  4  0  0  0  0
197198  4  0  0  0  0
197199  4  0  0  0  0
199200  1  0  0  0  0
200201  4  0  0  0  0
201202  4  0  0  0  0
202203  4  0  0  0  0
203204  1  0  0  0  0
204205  2  0  0  0  0
204206  2  0  0  0  0
205206  1  0  0  0  0
203207  4  0  0  0  0
200208  4  0  0  0  0
207208  4  0  0  0  0
199209  4  0  0  0  0
209210  4  0  0  0  0
210211  2  0  0  0  0
192212  1  0  0  0  0
209212  4  0  0  0  0
211213  4  0  0  0  0
212213  4  0  0  0  0
130214  4  0  0  0  0
213214  4  0  0  0  0
214215  4  0  0  0  0
215216  4  0  0  0  0
216217  2  0  0  0  0
217218  4  0  0  0  0
192219  1  0  0  0  0
215219  4  0  0  0  0
218219  4  0  0  0  0
218220  4  0  0  0  0
220221  1  0  0  0  0
221222  4  0  0  0  0
222223  4  0  0  0  0
223224  4  0  0  0  0
224225  1  0  0  0  0
225226  2  0  0  0  0
225227  2  0  0  0  0
226227  1  0  0  0  0
224228  4  0  0  0  0
221229  4  0  0  0  0
228229  4  0  0  0  0
220230  4  0  0  0  0
230231  4  0  0  0  0
231232  2  0  0  0  0
193233  4  0  0  0  0
232233  4  0  0  0  0
192234  1  0  0  0  0
230234  4  0  0  0  0
233234  4  0  0  0  0
195235  1  0  0  0  0
196236  1  0  0  0  0
201237  1  0  0  0  0
202238  1  0  0  0  0
207239  1  0  0  0  0
208240  1  0  0  0  0
210241  1  0  0  0  0
211242  1  0  0  0  0
216243  1  0  0  0  0
217244  1  0  0  0  0
222245  1  0  0  0  0
223246  1  0  0  0  0
228247  1  0  0  0  0
229248  1  0  0  0  0
231249  1  0  0  0  0
232250  1  0  0  0  0
M  END
