 xtb: 6.5.1 (b24c23e)
          07302211273D

118137  0     0  0            999 V2000
   12.7429   -0.0359   -0.0086 Zn  0  0  0  0  0  0  0  0  0  0  0  0
    9.3316   -0.0648   -0.0217 C   0  0  0  0  0  0  0  0  0  0  0  0
    9.9611   -1.3017   -0.0940 C   0  0  0  0  0  0  0  0  0  0  0  0
    9.2872   -2.5692   -0.1385 C   0  0  0  0  0  0  0  0  0  0  0  0
   10.2464   -3.5275   -0.1829 C   0  0  0  0  0  0  0  0  0  0  0  0
   11.5191   -2.8560   -0.1751 C   0  0  0  0  0  0  0  0  0  0  0  0
   11.3105   -1.5091   -0.1150 N   0  0  0  0  0  0  0  0  0  0  0  0
   12.7699   -3.4849   -0.1938 C   0  0  0  0  0  0  0  0  0  0  0  0
   14.0094   -2.8383   -0.1470 C   0  0  0  0  0  0  0  0  0  0  0  0
   15.2879   -3.4906   -0.2133 C   0  0  0  0  0  0  0  0  0  0  0  0
   16.2358   -2.5203   -0.1578 C   0  0  0  0  0  0  0  0  0  0  0  0
   14.2054   -1.4852   -0.0636 N   0  0  0  0  0  0  0  0  0  0  0  0
   15.5475   -1.2663   -0.0647 C   0  0  0  0  0  0  0  0  0  0  0  0
   16.1807   -0.0081    0.0001 C   0  0  0  0  0  0  0  0  0  0  0  0
   15.5267    1.2393    0.0652 C   0  0  0  0  0  0  0  0  0  0  0  0
   16.1936    2.5076    0.1001 C   0  0  0  0  0  0  0  0  0  0  0  0
   15.2296    3.4621    0.1509 C   0  0  0  0  0  0  0  0  0  0  0  0
   13.9623    2.7850    0.1556 C   0  0  0  0  0  0  0  0  0  0  0  0
   12.7118    3.4113    0.1884 C   0  0  0  0  0  0  0  0  0  0  0  0
   12.6958    4.8938    0.2750 C   0  0  0  0  0  0  0  0  0  0  0  0
   12.1349    5.6559   -0.7507 C   0  0  0  0  0  0  0  0  0  0  0  0
   12.1188    7.0402   -0.6683 C   0  0  0  0  0  0  0  0  0  0  0  0
   12.6573    7.6798    0.4400 C   0  0  0  0  0  0  0  0  0  0  0  0
   13.2153    6.9288    1.4657 C   0  0  0  0  0  0  0  0  0  0  0  0
   13.2374    5.5445    1.3843 C   0  0  0  0  0  0  0  0  0  0  0  0
   11.4717    2.7623    0.1462 C   0  0  0  0  0  0  0  0  0  0  0  0
   10.1878    3.4077    0.2241 C   0  0  0  0  0  0  0  0  0  0  0  0
    9.2451    2.4343    0.1610 C   0  0  0  0  0  0  0  0  0  0  0  0
    9.9402    1.1823    0.0534 C   0  0  0  0  0  0  0  0  0  0  0  0
   11.2859    1.4141    0.0514 N   0  0  0  0  0  0  0  0  0  0  0  0
   14.1811    1.4342    0.0948 N   0  0  0  0  0  0  0  0  0  0  0  0
   12.7802   -4.9682   -0.2684 C   0  0  0  0  0  0  0  0  0  0  0  0
   12.2528   -5.6243   -1.3814 C   0  0  0  0  0  0  0  0  0  0  0  0
   12.2630   -7.0094   -1.4493 C   0  0  0  0  0  0  0  0  0  0  0  0
   12.7940   -7.7556   -0.4060 C   0  0  0  0  0  0  0  0  0  0  0  0
   13.3184   -7.1104    0.7058 C   0  0  0  0  0  0  0  0  0  0  0  0
   13.3148   -5.7253    0.7746 C   0  0  0  0  0  0  0  0  0  0  0  0
    8.2460   -0.0746   -0.0118 H   0  0  0  0  0  0  0  0  0  0  0  0
    8.2161   -2.6977   -0.1292 H   0  0  0  0  0  0  0  0  0  0  0  0
   10.1092   -4.5967   -0.2072 H   0  0  0  0  0  0  0  0  0  0  0  0
   15.4388   -4.5542   -0.3038 H   0  0  0  0  0  0  0  0  0  0  0  0
   17.3077   -2.6357   -0.1840 H   0  0  0  0  0  0  0  0  0  0  0  0
   17.2634    2.6430    0.0806 H   0  0  0  0  0  0  0  0  0  0  0  0
   15.3625    4.5319    0.1705 H   0  0  0  0  0  0  0  0  0  0  0  0
   11.7246    5.1584   -1.6226 H   0  0  0  0  0  0  0  0  0  0  0  0
   11.6845    7.6222   -1.4736 H   0  0  0  0  0  0  0  0  0  0  0  0
   12.6420    8.7619    0.5043 H   0  0  0  0  0  0  0  0  0  0  0  0
   13.6345    7.4235    2.3349 H   0  0  0  0  0  0  0  0  0  0  0  0
   13.6623    4.9591    2.1922 H   0  0  0  0  0  0  0  0  0  0  0  0
   10.0322    4.4698    0.3268 H   0  0  0  0  0  0  0  0  0  0  0  0
    8.1721    2.5422    0.1912 H   0  0  0  0  0  0  0  0  0  0  0  0
   11.8480   -5.0425   -2.2022 H   0  0  0  0  0  0  0  0  0  0  0  0
   11.8550   -7.5085   -2.3214 H   0  0  0  0  0  0  0  0  0  0  0  0
   12.7991   -8.8385   -0.4593 H   0  0  0  0  0  0  0  0  0  0  0  0
   13.7315   -7.6888    1.5248 H   0  0  0  0  0  0  0  0  0  0  0  0
   13.7140   -5.2230    1.6488 H   0  0  0  0  0  0  0  0  0  0  0  0
   28.7960    0.0355   -0.0072 Zn  0  0  0  0  0  0  0  0  0  0  0  0
   32.2073    0.0653   -0.0184 C   0  0  0  0  0  0  0  0  0  0  0  0
   31.5777    1.3041   -0.0371 C   0  0  0  0  0  0  0  0  0  0  0  0
   32.2516    2.5723   -0.0264 C   0  0  0  0  0  0  0  0  0  0  0  0
   31.2924    3.5316   -0.0293 C   0  0  0  0  0  0  0  0  0  0  0  0
   30.0197    2.8603   -0.0508 C   0  0  0  0  0  0  0  0  0  0  0  0
   30.2283    1.5121   -0.0493 N   0  0  0  0  0  0  0  0  0  0  0  0
   28.7688    3.4893   -0.0423 C   0  0  0  0  0  0  0  0  0  0  0  0
   27.5294    2.8413   -0.0239 C   0  0  0  0  0  0  0  0  0  0  0  0
   26.2508    3.4957   -0.0618 C   0  0  0  0  0  0  0  0  0  0  0  0
   25.3030    2.5239   -0.0485 C   0  0  0  0  0  0  0  0  0  0  0  0
   27.3334    1.4858    0.0007 N   0  0  0  0  0  0  0  0  0  0  0  0
   25.9913    1.2671   -0.0099 C   0  0  0  0  0  0  0  0  0  0  0  0
   25.3582    0.0072    0.0003 C   0  0  0  0  0  0  0  0  0  0  0  0
   26.0122   -1.2418    0.0111 C   0  0  0  0  0  0  0  0  0  0  0  0
   25.3454   -2.5104   -0.0094 C   0  0  0  0  0  0  0  0  0  0  0  0
   26.3095   -3.4662   -0.0001 C   0  0  0  0  0  0  0  0  0  0  0  0
   27.5767   -2.7899    0.0342 C   0  0  0  0  0  0  0  0  0  0  0  0
   28.8273   -3.4170    0.0399 C   0  0  0  0  0  0  0  0  0  0  0  0
   28.8435   -4.9018    0.0621 C   0  0  0  0  0  0  0  0  0  0  0  0
   29.4048   -5.6186   -0.9956 C   0  0  0  0  0  0  0  0  0  0  0  0
   29.4212   -7.0051   -0.9731 C   0  0  0  0  0  0  0  0  0  0  0  0
   28.8826   -7.6923    0.1062 C   0  0  0  0  0  0  0  0  0  0  0  0
   28.3241   -6.9866    1.1633 C   0  0  0  0  0  0  0  0  0  0  0  0
   28.3017   -5.6001    1.1420 C   0  0  0  0  0  0  0  0  0  0  0  0
   30.0673   -2.7666    0.0262 C   0  0  0  0  0  0  0  0  0  0  0  0
   31.3512   -3.4147    0.0765 C   0  0  0  0  0  0  0  0  0  0  0  0
   32.2939   -2.4394    0.0559 C   0  0  0  0  0  0  0  0  0  0  0  0
   31.5987   -1.1839    0.0024 C   0  0  0  0  0  0  0  0  0  0  0  0
   30.2530   -1.4155   -0.0100 N   0  0  0  0  0  0  0  0  0  0  0  0
   27.3578   -1.4377    0.0321 N   0  0  0  0  0  0  0  0  0  0  0  0
   28.7584    4.9745   -0.0525 C   0  0  0  0  0  0  0  0  0  0  0  0
   29.2857    5.6784   -1.1358 C   0  0  0  0  0  0  0  0  0  0  0  0
   29.2751    7.0652   -1.1435 C   0  0  0  0  0  0  0  0  0  0  0  0
   28.7438    7.7652   -0.0689 C   0  0  0  0  0  0  0  0  0  0  0  0
   28.2195    7.0723    1.0138 C   0  0  0  0  0  0  0  0  0  0  0  0
   28.2235    5.6854    1.0225 C   0  0  0  0  0  0  0  0  0  0  0  0
   33.2929    0.0746   -0.0079 H   0  0  0  0  0  0  0  0  0  0  0  0
   33.3227    2.7004   -0.0113 H   0  0  0  0  0  0  0  0  0  0  0  0
   31.4294    4.6009   -0.0070 H   0  0  0  0  0  0  0  0  0  0  0  0
   26.0999    4.5623   -0.1061 H   0  0  0  0  0  0  0  0  0  0  0  0
   24.2311    2.6403   -0.0697 H   0  0  0  0  0  0  0  0  0  0  0  0
   24.2756   -2.6450   -0.0347 H   0  0  0  0  0  0  0  0  0  0  0  0
   26.1766   -4.5358   -0.0270 H   0  0  0  0  0  0  0  0  0  0  0  0
   29.8153   -5.0837   -1.8449 H   0  0  0  0  0  0  0  0  0  0  0  0
   29.8560   -7.5516   -1.8029 H   0  0  0  0  0  0  0  0  0  0  0  0
   28.8982   -8.7762    0.1235 H   0  0  0  0  0  0  0  0  0  0  0  0
   27.9048   -7.5186    2.0102 H   0  0  0  0  0  0  0  0  0  0  0  0
   27.8765   -5.0503    1.9743 H   0  0  0  0  0  0  0  0  0  0  0  0
   31.5068   -4.4802    0.1332 H   0  0  0  0  0  0  0  0  0  0  0  0
   33.3669   -2.5485    0.0817 H   0  0  0  0  0  0  0  0  0  0  0  0
   29.6907    5.1328   -1.9810 H   0  0  0  0  0  0  0  0  0  0  0  0
   29.6831    7.6017   -1.9931 H   0  0  0  0  0  0  0  0  0  0  0  0
   28.7385    8.8494   -0.0751 H   0  0  0  0  0  0  0  0  0  0  0  0
   27.8063    7.6144    1.8572 H   0  0  0  0  0  0  0  0  0  0  0  0
   27.8244    5.1457    1.8740 H   0  0  0  0  0  0  0  0  0  0  0  0
   21.3837   -0.0007   -0.0151 C   0  0  0  0  0  0  0  0  0  0  0  0
   20.1552    0.0018   -0.0138 C   0  0  0  0  0  0  0  0  0  0  0  0
   18.8104    0.0043   -0.0130 C   0  0  0  0  0  0  0  0  0  0  0  0
   17.5862    0.0020   -0.0088 C   0  0  0  0  0  0  0  0  0  0  0  0
   22.7285   -0.0030   -0.0140 C   0  0  0  0  0  0  0  0  0  0  0  0
   23.9527   -0.0021   -0.0100 C   0  0  0  0  0  0  0  0  0  0  0  0
  2  3  4  0  0  0  0
  3  4  4  0  0  0  0
  4  5  2  0  0  0  0
  5  6  4  0  0  0  0
  1  7  1  0  0  0  0
  3  7  4  0  0  0  0
  6  7  4  0  0  0  0
  6  8  4  0  0  0  0
  8  9  4  0  0  0  0
  9 10  4  0  0  0  0
 10 11  2  0  0  0  0
  1 12  1  0  0  0  0
  9 12  4  0  0  0  0
 11 13  4  0  0  0  0
 12 13  4  0  0  0  0
 13 14  4  0  0  0  0
 14 15  4  0  0  0  0
 15 16  4  0  0  0  0
 16 17  2  0  0  0  0
 17 18  4  0  0  0  0
 18 19  4  0  0  0  0
 19 20  1  0  0  0  0
 20 21  4  0  0  0  0
 21 22  4  0  0  0  0
 22 23  4  0  0  0  0
 23 24  4  0  0  0  0
 20 25  4  0  0  0  0
 24 25  4  0  0  0  0
 19 26  4  0  0  0  0
 26 27  4  0  0  0  0
 27 28  2  0  0  0  0
  2 29  4  0  0  0  0
 28 29  4  0  0  0  0
  1 30  1  0  0  0  0
 26 30  4  0  0  0  0
 29 30  4  0  0  0  0
  1 31  1  0  0  0  0
 15 31  4  0  0  0  0
 18 31  4  0  0  0  0
  8 32  1  0  0  0  0
 32 33  4  0  0  0  0
 33 34  4  0  0  0  0
 34 35  4  0  0  0  0
 35 36  4  0  0  0  0
 32 37  4  0  0  0  0
 36 37  4  0  0  0  0
  2 38  1  0  0  0  0
  4 39  1  0  0  0  0
  5 40  1  0  0  0  0
 10 41  1  0  0  0  0
 11 42  1  0  0  0  0
 16 43  1  0  0  0  0
 17 44  1  0  0  0  0
 21 45  1  0  0  0  0
 22 46  1  0  0  0  0
 23 47  1  0  0  0  0
 24 48  1  0  0  0  0
 25 49  1  0  0  0  0
 27 50  1  0  0  0  0
 28 51  1  0  0  0  0
 33 52  1  0  0  0  0
 34 53  1  0  0  0  0
 35 54  1  0  0  0  0
 36 55  1  0  0  0  0
 37 56  1  0  0  0  0
 58 59  4  0  0  0  0
 59 60  4  0  0  0  0
 60 61  2  0  0  0  0
 61 62  4  0  0  0  0
 57 63  1  0  0  0  0
 59 63  4  0  0  0  0
 62 63  4  0  0  0  0
 62 64  4  0  0  0  0
 64 65  4  0  0  0  0
 65 66  4  0  0  0  0
 66 67  2  0  0  0  0
 57 68  1  0  0  0  0
 65 68  4  0  0  0  0
 67 69  4  0  0  0  0
 68 69  4  0  0  0  0
 69 70  4  0  0  0  0
 70 71  4  0  0  0  0
 71 72  4  0  0  0  0
 72 73  2  0  0  0  0
 73 74  4  0  0  0  0
 74 75  4  0  0  0  0
 75 76  1  0  0  0  0
 76 77  4  0  0  0  0
 77 78  4  0  0  0  0
 78 79  4  0  0  0  0
 79 80  4  0  0  0  0
 76 81  4  0  0  0  0
 80 81  4  0  0  0  0
 75 82  4  0  0  0  0
 82 83  4  0  0  0  0
 83 84  2  0  0  0  0
 58 85  4  0  0  0  0
 84 85  4  0  0  0  0
 57 86  1  0  0  0  0
 82 86  4  0  0  0  0
 85 86  4  0  0  0  0
 57 87  1  0  0  0  0
 71 87  4  0  0  0  0
 74 87  4  0  0  0  0
 64 88  1  0  0  0  0
 88 89  4  0  0  0  0
 89 90  4  0  0  0  0
 90 91  4  0  0  0  0
 91 92  4  0  0  0  0
 88 93  4  0  0  0  0
 92 93  4  0  0  0  0
 58 94  1  0  0  0  0
 60 95  1  0  0  0  0
 61 96  1  0  0  0  0
 66 97  1  0  0  0  0
 67 98  1  0  0  0  0
 72 99  1  0  0  0  0
 73100  1  0  0  0  0
 77101  1  0  0  0  0
 78102  1  0  0  0  0
 79103  1  0  0  0  0
 80104  1  0  0  0  0
 81105  1  0  0  0  0
 83106  1  0  0  0  0
 84107  1  0  0  0  0
 89108  1  0  0  0  0
 90109  1  0  0  0  0
 91110  1  0  0  0  0
 92111  1  0  0  0  0
 93112  1  0  0  0  0
113114  3  0  0  0  0
114115  4  0  0  0  0
 14116  4  0  0  0  0
115116  3  0  0  0  0
113117  4  0  0  0  0
 70118  4  0  0  0  0
117118  3  0  0  0  0
M  END
