544

C 96.242913 -0.034233 -0.032024
C 96.968100 -1.413003 0.011159
C 96.350457 -2.638900 0.104787
C 97.372381 -3.621802 0.075931
C 98.580762 -2.962009 -0.034562
N 98.323717 -1.614468 -0.042286
C 100.014483 -3.632092 -0.156288
C 100.066563 -5.117975 -0.303775
C 99.995921 -5.710232 -1.585932
C 99.885752 -4.864312 -2.827721
C 100.034291 -7.109434 -1.705241
C 100.148820 -7.928476 -0.576906
C 100.152971 -9.419898 -0.719314
C 100.202363 -7.337704 0.689975
C 100.167858 -5.941699 0.841650
C 100.237500 -5.345017 2.223244
C 101.140747 -2.867509 -0.153283
C 102.453656 -3.456940 -0.314040
C 103.355135 -2.482972 -0.298287
N 101.330323 -1.515093 -0.027779
C 102.667430 -1.219892 -0.109823
C 103.339107 -0.038832 -0.043090
C 102.567101 1.329109 0.206329
C 103.137507 2.519414 0.615581
C 102.110048 3.491405 0.673897
C 100.935412 2.867707 0.312076
N 101.216354 1.543926 0.061983
C 99.507989 3.559402 0.207379
C 99.450540 5.050541 0.201466
C 99.585714 5.760401 -1.013689
C 99.781898 5.034265 -2.318943
C 99.526242 7.164033 -1.006354
C 99.344802 7.873629 0.185360
C 99.240962 9.368303 0.173837
C 99.200845 7.165577 1.383296
C 99.261428 5.762407 1.409071
C 99.095533 5.039977 2.720453
C 98.388599 2.794181 0.115363
C 97.059265 3.370009 0.011090
C 96.177462 2.377393 -0.047592
C 96.908117 1.135082 0.008991
N 98.231939 1.435793 0.098099
H 95.161854 -0.033401 -0.106812
H 95.287151 -2.807059 0.174594
H 97.241602 -4.692445 0.116783
H 99.029179 -0.881384 -0.077237
H 98.984385 -4.244812 -2.796245
H 99.817470 -5.486035 -3.727201
H 100.769007 -4.228469 -2.940385
H 99.975759 -7.559821 -2.692976
H 99.128362 -9.802527 -0.685641
H 100.611634 -9.721193 -1.666868
H 100.731913 -9.888406 0.083513
H 100.273677 -7.966631 1.573788
H 99.336289 -4.762591 2.437974
H 100.308178 -6.124886 2.989387
H 101.122364 -4.709603 2.326687
H 102.670142 -4.503397 -0.435151
H 104.414165 -2.633308 -0.399982
H 104.180751 2.681581 0.839547
H 102.215309 4.531173 0.946024
H 100.521746 0.834691 -0.160337
H 99.865740 5.736828 -3.155389
H 100.704239 4.445631 -2.299740
H 98.929045 4.381350 -2.529288
H 99.619087 7.704011 -1.945268
H 99.684187 9.795418 1.078938
H 98.190742 9.669976 0.118373
H 99.774408 9.794396 -0.681796
H 99.036959 7.707590 2.311235
H 99.077909 5.743500 3.560278
H 98.152312 4.485777 2.737427
H 99.930134 4.355331 2.898195
H 96.825708 4.419376 -0.012028
H 95.110328 2.476897 -0.126258
C 184.472047 -0.042862 -0.031805
C 183.746859 1.336321 -0.058758
C 184.364503 2.565392 -0.027562
C 183.342579 3.545557 -0.106340
C 182.134198 2.881000 -0.183154
N 182.391243 1.534809 -0.122375
C 180.700476 3.544030 -0.338782
C 180.648397 5.020496 -0.561603
C 180.719038 5.546817 -1.872206
C 180.829207 4.638873 -3.069393
C 180.680669 6.938146 -2.062480
C 180.566139 7.813481 -0.977234
C 180.561988 9.295737 -1.195264
C 180.512596 7.287867 0.318037
C 180.547102 5.901375 0.540473
C 180.477459 5.375689 1.950609
C 179.574213 2.780588 -0.296918
C 178.261303 3.361086 -0.487426
C 177.359824 2.389178 -0.422189
N 179.384637 1.436299 -0.102835
C 178.047529 1.137310 -0.169768
C 177.375853 -0.038832 -0.043090
C 178.147859 -1.392327 0.275537
C 177.577452 -2.560291 0.744761
C 178.604911 -3.528062 0.852407
C 179.779548 -2.923561 0.459352
N 179.498606 -1.614203 0.142296
C 181.206971 -3.619684 0.389948
C 181.264419 -5.109195 0.459834
C 181.129246 -5.879902 -0.717668
C 180.933062 -5.221049 -2.058144
C 181.188717 -7.281348 -0.638999
C 181.370157 -7.929453 0.587243
C 181.473997 -9.422780 0.651706
C 181.514114 -7.161427 1.747641
C 181.453532 -5.758761 1.702061
C 181.619427 -4.970609 2.975029
C 182.326361 -2.860129 0.259156
C 183.655694 -3.440512 0.184286
C 184.537497 -2.452162 0.075227
C 183.806842 -1.208581 0.068591
N 182.483020 -1.504374 0.172869
H 185.553105 -0.047494 -0.106454
H 185.427808 2.736882 0.033608
H 183.473357 4.616892 -0.119959
H 181.685780 0.800896 -0.120018
H 181.730575 4.021774 -3.006469
H 180.897489 5.214073 -3.999311
H 179.945953 3.998125 -3.149593
H 180.739201 7.337746 -3.071831
H 181.586597 9.679584 -1.181084
H 180.103326 9.548480 -2.156909
H 179.983047 9.804446 -0.417289
H 180.441282 7.960904 1.168741
H 181.378670 4.804930 2.194666
H 180.406782 6.193492 2.676123
H 179.592596 4.746355 2.086216
H 178.044817 4.400035 -0.661571
H 176.300795 2.534151 -0.531394
H 176.534208 -2.710865 0.976681
H 178.499650 -4.552654 1.177031
H 180.193213 -0.917185 -0.115785
H 180.849219 -5.965219 -2.857799
H 180.010720 -4.632200 -2.068885
H 181.785914 -4.579670 -2.301403
H 181.095872 -7.868351 -1.549253
H 181.030772 -9.803339 1.577347
H 182.524217 -9.726882 0.611648
H 180.940552 -9.891813 -0.181163
H 181.678001 -7.655574 2.701930
H 181.637051 -5.630536 3.849527
H 182.562647 -4.416263 2.963811
H 180.784825 -4.277813 3.117742
H 183.889252 -4.489698 0.214535
H 185.604632 -2.555536 0.001720
C 106.587031 -0.026395 -0.040649
C 105.334761 -0.045576 -0.044997
C 107.900699 -0.027161 -0.038716
C 109.403833 -0.045576 -0.044997
C 119.800306 -0.026395 -0.040649
C 118.548035 -0.045576 -0.044997
C 121.113974 -0.027161 -0.038716
C 122.617107 -0.045576 -0.044997
C 133.013580 -0.026395 -0.040649
C 131.761309 -0.045576 -0.044997
C 134.327248 -0.027161 -0.038716
C 135.830382 -0.045576 -0.044997
C 146.226854 -0.026395 -0.040649
C 144.974584 -0.045576 -0.044997
C 147.540522 -0.027161 -0.038716
C 149.043656 -0.045576 -0.044997
C 159.440129 -0.026395 -0.040649
C 158.187858 -0.045576 -0.044997
C 160.753797 -0.027161 -0.038716
C 162.256930 -0.045576 -0.044997
C 172.653403 -0.026395 -0.040649
C 171.401132 -0.045576 -0.044997
C 173.967071 -0.027161 -0.038716
C 175.470205 -0.045576 -0.044997
C 110.341207 0.018699 0.020388
C 111.129595 -0.766299 1.150398
C 110.602087 -1.264007 2.324692
C 111.637600 -1.967026 2.990331
C 112.769130 -1.866194 2.209843
N 112.467628 -1.076779 1.127497
C 114.168196 -2.557588 2.490051
C 114.175566 -3.789628 3.333525
C 113.915779 -5.050596 2.748165
C 113.633277 -5.179413 1.273841
C 113.935338 -6.204457 3.549728
C 114.198381 -6.128091 4.921370
C 114.259787 -7.372720 5.752672
C 114.465371 -4.879713 5.493306
C 114.446907 -3.706932 4.719477
C 114.746555 -2.384936 5.377251
C 115.300780 -2.059035 1.926283
C 116.592590 -2.685895 2.117898
C 117.501395 -1.986819 1.447785
N 115.506925 -0.975790 1.116438
C 116.834644 -0.879275 0.792245
C 117.501544 0.018699 0.020388
C 116.713104 1.207263 -0.671296
C 117.237601 2.421737 -1.064668
C 116.202449 3.139898 -1.714874
C 115.073195 2.348613 -1.686568
N 115.376700 1.204771 -0.990494
C 113.674221 2.681745 -2.355429
C 113.668432 3.629172 -3.509505
C 113.937960 3.157739 -4.815192
C 114.220104 1.700206 -5.074111
C 113.941165 4.060982 -5.891159
C 113.671106 5.419817 -5.695599
C 113.711139 6.374568 -6.849929
C 113.418648 5.883471 -4.400196
C 113.409950 5.005012 -3.303642
C 113.123521 5.545024 -1.926675
C 112.542180 2.077338 -1.905728
C 111.250464 2.320111 -2.513585
C 110.342151 1.596056 -1.869748
C 111.008836 0.854825 -0.817648
N 112.337132 1.181495 -0.892467
H 109.580794 -1.157360 2.656628
H 111.561973 -2.505207 3.923249
H 113.137426 -0.751552 0.435925
H 112.742456 -4.607891 0.998840
H 114.489441 -4.836054 0.686670
H 113.444672 -6.221039 0.995743
H 113.746505 -7.172038 3.091586
H 113.931585 -7.173993 6.778005
H 113.601936 -8.147514 5.346261
H 115.284172 -7.755466 5.777549
H 114.694076 -4.812330 6.553962
H 113.948055 -1.661988 5.183727
H 114.822000 -2.492617 6.465354
H 115.700786 -1.985499 5.020284
H 116.789131 -3.569119 2.699708
H 118.549814 -2.220539 1.410619
H 118.257609 2.748090 -0.925592
H 116.277978 4.115347 -2.171727
H 114.708893 0.485822 -0.726365
H 114.392014 1.513071 -6.138774
H 113.368542 1.083154 -4.772642
H 115.119408 1.379555 -4.540493
H 114.154492 3.693416 -6.892008
H 113.382557 5.885284 -7.772985
H 114.729412 6.749139 -6.989382
H 113.042663 7.224872 -6.678737
H 113.224354 6.940509 -4.235947
H 113.961611 5.349258 -1.249651
H 112.976499 6.631517 -1.949805
H 112.207749 5.104342 -1.521560
H 111.054282 2.972719 -3.345645
H 109.293991 1.578889 -2.105388
C 123.554481 0.018699 0.020388
C 124.342869 -0.766299 1.150398
C 123.815362 -1.264007 2.324692
C 124.850874 -1.967026 2.990331
C 125.982404 -1.866194 2.209843
N 125.680902 -1.076779 1.127497
C 127.381470 -2.557588 2.490051
C 127.388840 -3.789628 3.333525
C 127.129053 -5.050596 2.748165
C 126.846551 -5.179413 1.273841
C 127.148613 -6.204457 3.549728
C 127.411656 -6.128091 4.921370
C 127.473062 -7.372720 5.752672
C 127.678646 -4.879713 5.493306
C 127.660181 -3.706932 4.719477
C 127.959830 -2.384936 5.377251
C 128.514054 -2.059035 1.926283
C 129.805865 -2.685895 2.117898
C 130.714669 -1.986819 1.447785
N 128.720199 -0.975790 1.116438
C 130.047918 -0.879275 0.792245
C 130.714818 0.018699 0.020388
C 129.926378 1.207263 -0.671296
C 130.450876 2.421737 -1.064668
C 129.415724 3.139898 -1.714874
C 128.286469 2.348613 -1.686568
N 128.589974 1.204771 -0.990494
C 126.887496 2.681745 -2.355429
C 126.881706 3.629172 -3.509505
C 127.151234 3.157739 -4.815192
C 127.433379 1.700206 -5.074111
C 127.154440 4.060982 -5.891159
C 126.884380 5.419817 -5.695599
C 126.924414 6.374568 -6.849929
C 126.631922 5.883471 -4.400196
C 126.623224 5.005012 -3.303642
C 126.336796 5.545024 -1.926675
C 125.755454 2.077338 -1.905728
C 124.463738 2.320111 -2.513585
C 123.555425 1.596056 -1.869748
C 124.222111 0.854825 -0.817648
N 125.550407 1.181495 -0.892467
H 122.794068 -1.157360 2.656628
H 124.775248 -2.505207 3.923249
H 126.350700 -0.751552 0.435925
H 125.955730 -4.607891 0.998840
H 127.702715 -4.836054 0.686670
H 126.657946 -6.221039 0.995743
H 126.959780 -7.172038 3.091586
H 127.144859 -7.173993 6.778005
H 126.815210 -8.147514 5.346261
H 128.497446 -7.755466 5.777549
H 127.907351 -4.812330 6.553962
H 127.161330 -1.661988 5.183727
H 128.035274 -2.492617 6.465354
H 128.914061 -1.985499 5.020284
H 130.002405 -3.569119 2.699708
H 131.763089 -2.220539 1.410619
H 131.470884 2.748090 -0.925592
H 129.491253 4.115347 -2.171727
H 127.922167 0.485822 -0.726365
H 127.605288 1.513071 -6.138774
H 126.581816 1.083154 -4.772642
H 128.332683 1.379555 -4.540493
H 127.367767 3.693416 -6.892008
H 126.595832 5.885284 -7.772985
H 127.942687 6.749139 -6.989382
H 126.255937 7.224872 -6.678737
H 126.437629 6.940509 -4.235947
H 127.174886 5.349258 -1.249651
H 126.189773 6.631517 -1.949805
H 125.421023 5.104342 -1.521560
H 124.267556 2.972719 -3.345645
H 122.507266 1.578889 -2.105388
C 136.767755 0.018699 0.020388
C 137.556144 -0.766299 1.150398
C 137.028636 -1.264007 2.324692
C 138.064149 -1.967026 2.990331
C 139.195678 -1.866194 2.209843
N 138.894176 -1.076779 1.127497
C 140.594744 -2.557588 2.490051
C 140.602114 -3.789628 3.333525
C 140.342328 -5.050596 2.748165
C 140.059825 -5.179413 1.273841
C 140.361887 -6.204457 3.549728
C 140.624930 -6.128091 4.921370
C 140.686336 -7.372720 5.752672
C 140.891920 -4.879713 5.493306
C 140.873456 -3.706932 4.719477
C 141.173104 -2.384936 5.377251
C 141.727329 -2.059035 1.926283
C 143.019139 -2.685895 2.117898
C 143.927944 -1.986819 1.447785
N 141.933473 -0.975790 1.116438
C 143.261193 -0.879275 0.792245
C 143.928092 0.018699 0.020388
C 143.139652 1.207263 -0.671296
C 143.664150 2.421737 -1.064668
C 142.628998 3.139898 -1.714874
C 141.499744 2.348613 -1.686568
N 141.803249 1.204771 -0.990494
C 140.100770 2.681745 -2.355429
C 140.094981 3.629172 -3.509505
C 140.364509 3.157739 -4.815192
C 140.646653 1.700206 -5.074111
C 140.367714 4.060982 -5.891159
C 140.097655 5.419817 -5.695599
C 140.137688 6.374568 -6.849929
C 139.845197 5.883471 -4.400196
C 139.836499 5.005012 -3.303642
C 139.550070 5.545024 -1.926675
C 138.968728 2.077338 -1.905728
C 137.677012 2.320111 -2.513585
C 136.768700 1.596056 -1.869748
C 137.435385 0.854825 -0.817648
N 138.763681 1.181495 -0.892467
H 136.007343 -1.157360 2.656628
H 137.988522 -2.505207 3.923249
H 139.563974 -0.751552 0.435925
H 139.169005 -4.607891 0.998840
H 140.915990 -4.836054 0.686670
H 139.871220 -6.221039 0.995743
H 140.173054 -7.172038 3.091586
H 140.358133 -7.173993 6.778005
H 140.028485 -8.147514 5.346261
H 141.710720 -7.755466 5.777549
H 141.120625 -4.812330 6.553962
H 140.374604 -1.661988 5.183727
H 141.248549 -2.492617 6.465354
H 142.127335 -1.985499 5.020284
H 143.215680 -3.569119 2.699708
H 144.976363 -2.220539 1.410619
H 144.684158 2.748090 -0.925592
H 142.704527 4.115347 -2.171727
H 141.135442 0.485822 -0.726365
H 140.818563 1.513071 -6.138774
H 139.795090 1.083154 -4.772642
H 141.545957 1.379555 -4.540493
H 140.581041 3.693416 -6.892008
H 139.809106 5.885284 -7.772985
H 141.155961 6.749139 -6.989382
H 139.469212 7.224872 -6.678737
H 139.650903 6.940509 -4.235947
H 140.388160 5.349258 -1.249651
H 139.403048 6.631517 -1.949805
H 138.634297 5.104342 -1.521560
H 137.480830 2.972719 -3.345645
H 135.720540 1.578889 -2.105388
C 149.981030 0.018699 0.020388
C 150.769418 -0.766299 1.150398
C 150.241910 -1.264007 2.324692
C 151.277423 -1.967026 2.990331
C 152.408953 -1.866194 2.209843
N 152.107451 -1.076779 1.127497
C 153.808019 -2.557588 2.490051
C 153.815389 -3.789628 3.333525
C 153.555602 -5.050596 2.748165
C 153.273100 -5.179413 1.273841
C 153.575161 -6.204457 3.549728
C 153.838204 -6.128091 4.921370
C 153.899610 -7.372720 5.752672
C 154.105194 -4.879713 5.493306
C 154.086730 -3.706932 4.719477
C 154.386378 -2.384936 5.377251
C 154.940603 -2.059035 1.926283
C 156.232413 -2.685895 2.117898
C 157.141218 -1.986819 1.447785
N 155.146748 -0.975790 1.116438
C 156.474467 -0.879275 0.792245
C 157.141367 0.018699 0.020388
C 156.352927 1.207263 -0.671296
C 156.877424 2.421737 -1.064668
C 155.842272 3.139898 -1.714874
C 154.713018 2.348613 -1.686568
N 155.016523 1.204771 -0.990494
C 153.314045 2.681745 -2.355429
C 153.308255 3.629172 -3.509505
C 153.577783 3.157739 -4.815192
C 153.859927 1.700206 -5.074111
C 153.580988 4.060982 -5.891159
C 153.310929 5.419817 -5.695599
C 153.350962 6.374568 -6.849929
C 153.058471 5.883471 -4.400196
C 153.049773 5.005012 -3.303642
C 152.763344 5.545024 -1.926675
C 152.182003 2.077338 -1.905728
C 150.890287 2.320111 -2.513585
C 149.981974 1.596056 -1.869748
C 150.648659 0.854825 -0.817648
N 151.976955 1.181495 -0.892467
H 149.220617 -1.157360 2.656628
H 151.201797 -2.505207 3.923249
H 152.777249 -0.751552 0.435925
H 152.382279 -4.607891 0.998840
H 154.129264 -4.836054 0.686670
H 153.084495 -6.221039 0.995743
H 153.386328 -7.172038 3.091586
H 153.571408 -7.173993 6.778005
H 153.241759 -8.147514 5.346261
H 154.923995 -7.755466 5.777549
H 154.333899 -4.812330 6.553962
H 153.587878 -1.661988 5.183727
H 154.461823 -2.492617 6.465354
H 155.340609 -1.985499 5.020284
H 156.428954 -3.569119 2.699708
H 158.189637 -2.220539 1.410619
H 157.897432 2.748090 -0.925592
H 155.917801 4.115347 -2.171727
H 154.348716 0.485822 -0.726365
H 154.031837 1.513071 -6.138774
H 153.008365 1.083154 -4.772642
H 154.759231 1.379555 -4.540493
H 153.794315 3.693416 -6.892008
H 153.022381 5.885284 -7.772985
H 154.369235 6.749139 -6.989382
H 152.682486 7.224872 -6.678737
H 152.864177 6.940509 -4.235947
H 153.601434 5.349258 -1.249651
H 152.616322 6.631517 -1.949805
H 151.847572 5.104342 -1.521560
H 150.694105 2.972719 -3.345645
H 148.933814 1.578889 -2.105388
C 163.194304 0.018699 0.020388
C 163.982693 -0.766299 1.150398
C 163.455185 -1.264007 2.324692
C 164.490697 -1.967026 2.990331
C 165.622227 -1.866194 2.209843
N 165.320725 -1.076779 1.127497
C 167.021293 -2.557588 2.490051
C 167.028663 -3.789628 3.333525
C 166.768876 -5.050596 2.748165
C 166.486374 -5.179413 1.273841
C 166.788436 -6.204457 3.549728
C 167.051479 -6.128091 4.921370
C 167.112885 -7.372720 5.752672
C 167.318469 -4.879713 5.493306
C 167.300004 -3.706932 4.719477
C 167.599653 -2.384936 5.377251
C 168.153877 -2.059035 1.926283
C 169.445688 -2.685895 2.117898
C 170.354492 -1.986819 1.447785
N 168.360022 -0.975790 1.116438
C 169.687742 -0.879275 0.792245
C 170.354641 0.018699 0.020388
C 169.566201 1.207263 -0.671296
C 170.090699 2.421737 -1.064668
C 169.055547 3.139898 -1.714874
C 167.926292 2.348613 -1.686568
N 168.229798 1.204771 -0.990494
C 166.527319 2.681745 -2.355429
C 166.521529 3.629172 -3.509505
C 166.791057 3.157739 -4.815192
C 167.073202 1.700206 -5.074111
C 166.794263 4.060982 -5.891159
C 166.524203 5.419817 -5.695599
C 166.564237 6.374568 -6.849929
C 166.271745 5.883471 -4.400196
C 166.263047 5.005012 -3.303642
C 165.976619 5.545024 -1.926675
C 165.395277 2.077338 -1.905728
C 164.103561 2.320111 -2.513585
C 163.195248 1.596056 -1.869748
C 163.861934 0.854825 -0.817648
N 165.190230 1.181495 -0.892467
H 162.433891 -1.157360 2.656628
H 164.415071 -2.505207 3.923249
H 165.990523 -0.751552 0.435925
H 165.595553 -4.607891 0.998840
H 167.342538 -4.836054 0.686670
H 166.297769 -6.221039 0.995743
H 166.599603 -7.172038 3.091586
H 166.784682 -7.173993 6.778005
H 166.455033 -8.147514 5.346261
H 168.137269 -7.755466 5.777549
H 167.547174 -4.812330 6.553962
H 166.801153 -1.661988 5.183727
H 167.675097 -2.492617 6.465354
H 168.553884 -1.985499 5.020284
H 169.642228 -3.569119 2.699708
H 171.402912 -2.220539 1.410619
H 171.110707 2.748090 -0.925592
H 169.131076 4.115347 -2.171727
H 167.561990 0.485822 -0.726365
H 167.245111 1.513071 -6.138774
H 166.221639 1.083154 -4.772642
H 167.972506 1.379555 -4.540493
H 167.007590 3.693416 -6.892008
H 166.235655 5.885284 -7.772985
H 167.582510 6.749139 -6.989382
H 165.895760 7.224872 -6.678737
H 166.077452 6.940509 -4.235947
H 166.814709 5.349258 -1.249651
H 165.829597 6.631517 -1.949805
H 165.060846 5.104342 -1.521560
H 163.907379 2.972719 -3.345645
H 162.147089 1.578889 -2.105388
