 xtb: 6.5.1 (b24c23e)
          07292214393D

348389  0     0  0            999 V2000
   74.5238    0.0051    0.1282 C   0  0  0  0  0  0  0  0  0  0  0  0
   75.1222   -1.1851    0.5209 C   0  0  0  0  0  0  0  0  0  0  0  0
   74.4602   -2.3839    0.9085 C   0  0  0  0  0  0  0  0  0  0  0  0
   75.4148   -3.3087    1.2260 C   0  0  0  0  0  0  0  0  0  0  0  0
   76.6913   -2.7012    1.0527 C   0  0  0  0  0  0  0  0  0  0  0  0
   76.4636   -1.4264    0.6170 N   0  0  0  0  0  0  0  0  0  0  0  0
   77.9491   -3.2752    1.2667 C   0  0  0  0  0  0  0  0  0  0  0  0
   79.1707   -2.6340    1.0474 C   0  0  0  0  0  0  0  0  0  0  0  0
   80.4608   -3.2264    1.3516 C   0  0  0  0  0  0  0  0  0  0  0  0
   81.3912   -2.3103    1.0126 C   0  0  0  0  0  0  0  0  0  0  0  0
   79.3393   -1.3775    0.5511 N   0  0  0  0  0  0  0  0  0  0  0  0
   80.6696   -1.1589    0.5063 C   0  0  0  0  0  0  0  0  0  0  0  0
   81.3174    0.0050    0.0474 C   0  0  0  0  0  0  0  0  0  0  0  0
   80.6921    1.1819   -0.4053 C   0  0  0  0  0  0  0  0  0  0  0  0
   81.3435    2.3342   -0.9190 C   0  0  0  0  0  0  0  0  0  0  0  0
   80.3840    3.2506   -1.2505 C   0  0  0  0  0  0  0  0  0  0  0  0
   79.1151    2.6875   -0.9417 C   0  0  0  0  0  0  0  0  0  0  0  0
   77.8584    3.2742   -1.1268 C   0  0  0  0  0  0  0  0  0  0  0  0
   77.8396    4.6597   -1.6558 C   0  0  0  0  0  0  0  0  0  0  0  0
   77.2120    4.9438   -2.8698 C   0  0  0  0  0  0  0  0  0  0  0  0
   77.1982    6.2384   -3.3663 C   0  0  0  0  0  0  0  0  0  0  0  0
   77.8058    7.2652   -2.6564 C   0  0  0  0  0  0  0  0  0  0  0  0
   78.4301    6.9916   -1.4470 C   0  0  0  0  0  0  0  0  0  0  0  0
   78.4502    5.6972   -0.9495 C   0  0  0  0  0  0  0  0  0  0  0  0
   76.6368    2.6509   -0.8533 C   0  0  0  0  0  0  0  0  0  0  0  0
   75.3401    3.2951   -0.9940 C   0  0  0  0  0  0  0  0  0  0  0  0
   74.4171    2.3772   -0.6427 C   0  0  0  0  0  0  0  0  0  0  0  0
   75.1490    1.1766   -0.2790 C   0  0  0  0  0  0  0  0  0  0  0  0
   76.4826    1.3812   -0.4078 N   0  0  0  0  0  0  0  0  0  0  0  0
   79.3529    1.4340   -0.4427 N   0  0  0  0  0  0  0  0  0  0  0  0
   77.9688   -4.6703    1.7719 C   0  0  0  0  0  0  0  0  0  0  0  0
   77.3913   -4.9865    3.0024 C   0  0  0  0  0  0  0  0  0  0  0  0
   77.4135   -6.2909    3.4730 C   0  0  0  0  0  0  0  0  0  0  0  0
   78.0064   -7.2950    2.7197 C   0  0  0  0  0  0  0  0  0  0  0  0
   78.5806   -6.9889    1.4933 C   0  0  0  0  0  0  0  0  0  0  0  0
   78.5650   -5.6850    1.0217 C   0  0  0  0  0  0  0  0  0  0  0  0
   73.4386    0.0112    0.1433 H   0  0  0  0  0  0  0  0  0  0  0  0
   73.3895   -2.5110    0.9313 H   0  0  0  0  0  0  0  0  0  0  0  0
   75.2553   -4.3259    1.5450 H   0  0  0  0  0  0  0  0  0  0  0  0
   77.1944   -0.7589    0.3942 H   0  0  0  0  0  0  0  0  0  0  0  0
   80.6117   -4.2029    1.7823 H   0  0  0  0  0  0  0  0  0  0  0  0
   82.4634   -2.3791    1.1015 H   0  0  0  0  0  0  0  0  0  0  0  0
   82.4108    2.4368   -1.0305 H   0  0  0  0  0  0  0  0  0  0  0  0
   80.5384    4.2258   -1.6826 H   0  0  0  0  0  0  0  0  0  0  0  0
   76.7490    4.1408   -3.4324 H   0  0  0  0  0  0  0  0  0  0  0  0
   76.7120    6.4462   -4.3130 H   0  0  0  0  0  0  0  0  0  0  0  0
   77.7927    8.2772   -3.0450 H   0  0  0  0  0  0  0  0  0  0  0  0
   78.9030    7.7905   -0.8867 H   0  0  0  0  0  0  0  0  0  0  0  0
   78.9257    5.4887    0.0025 H   0  0  0  0  0  0  0  0  0  0  0  0
   75.1832    4.3151   -1.3061 H   0  0  0  0  0  0  0  0  0  0  0  0
   73.3431    2.4752   -0.6150 H   0  0  0  0  0  0  0  0  0  0  0  0
   78.6261    0.7864   -0.1560 H   0  0  0  0  0  0  0  0  0  0  0  0
   76.9408   -4.2013    3.5995 H   0  0  0  0  0  0  0  0  0  0  0  0
   76.9673   -6.5238    4.4336 H   0  0  0  0  0  0  0  0  0  0  0  0
   78.0215   -8.3144    3.0882 H   0  0  0  0  0  0  0  0  0  0  0  0
   79.0426   -7.7701    0.8998 H   0  0  0  0  0  0  0  0  0  0  0  0
   79.0033   -5.4495    0.0583 H   0  0  0  0  0  0  0  0  0  0  0  0
  135.7981   -0.0233   -0.0043 C   0  0  0  0  0  0  0  0  0  0  0  0
  135.2101    1.1482   -0.4633 C   0  0  0  0  0  0  0  0  0  0  0  0
  135.8816    2.3018   -0.9571 C   0  0  0  0  0  0  0  0  0  0  0  0
  134.9351    3.2255   -1.3009 C   0  0  0  0  0  0  0  0  0  0  0  0
  133.6545    2.6709   -1.0159 C   0  0  0  0  0  0  0  0  0  0  0  0
  133.8715    1.4153   -0.5228 N   0  0  0  0  0  0  0  0  0  0  0  0
  132.4020    3.2642   -1.2064 C   0  0  0  0  0  0  0  0  0  0  0  0
  131.1757    2.6537   -0.9320 C   0  0  0  0  0  0  0  0  0  0  0  0
  129.8923    3.3175   -1.0752 C   0  0  0  0  0  0  0  0  0  0  0  0
  128.9537    2.4136   -0.7263 C   0  0  0  0  0  0  0  0  0  0  0  0
  130.9957    1.3805   -0.4858 N   0  0  0  0  0  0  0  0  0  0  0  0
  129.6638    1.2025   -0.3632 C   0  0  0  0  0  0  0  0  0  0  0  0
  129.0053    0.0181    0.0196 C   0  0  0  0  0  0  0  0  0  0  0  0
  129.6183   -1.1914    0.3945 C   0  0  0  0  0  0  0  0  0  0  0  0
  128.9542   -2.3911    0.7639 C   0  0  0  0  0  0  0  0  0  0  0  0
  129.9050   -3.3187    1.0883 C   0  0  0  0  0  0  0  0  0  0  0  0
  131.1812   -2.7090    0.9387 C   0  0  0  0  0  0  0  0  0  0  0  0
  132.4324   -3.2912    1.1682 C   0  0  0  0  0  0  0  0  0  0  0  0
  132.4380   -4.6884    1.6667 C   0  0  0  0  0  0  0  0  0  0  0  0
  133.0418   -5.7024    0.9217 C   0  0  0  0  0  0  0  0  0  0  0  0
  133.0442   -7.0085    1.3875 C   0  0  0  0  0  0  0  0  0  0  0  0
  132.4489   -7.3178    2.6030 C   0  0  0  0  0  0  0  0  0  0  0  0
  131.8483   -6.3145    3.3512 C   0  0  0  0  0  0  0  0  0  0  0  0
  131.8395   -5.0079    2.8865 C   0  0  0  0  0  0  0  0  0  0  0  0
  133.6604   -2.6535    0.9656 C   0  0  0  0  0  0  0  0  0  0  0  0
  134.9523   -3.2527    1.2626 C   0  0  0  0  0  0  0  0  0  0  0  0
  135.8840   -2.3359    0.9324 C   0  0  0  0  0  0  0  0  0  0  0  0
  135.1624   -1.1738    0.4441 C   0  0  0  0  0  0  0  0  0  0  0  0
  133.8262   -1.3971    0.4877 N   0  0  0  0  0  0  0  0  0  0  0  0
  130.9563   -1.4286    0.5069 N   0  0  0  0  0  0  0  0  0  0  0  0
  132.3941    4.6467   -1.7458 C   0  0  0  0  0  0  0  0  0  0  0  0
  132.9985    5.6885   -1.0410 C   0  0  0  0  0  0  0  0  0  0  0  0
  132.9906    6.9779   -1.5519 C   0  0  0  0  0  0  0  0  0  0  0  0
  132.3851    7.2416   -2.7730 C   0  0  0  0  0  0  0  0  0  0  0  0
  131.7833    6.2101   -3.4811 C   0  0  0  0  0  0  0  0  0  0  0  0
  131.7848    4.9206   -2.9712 C   0  0  0  0  0  0  0  0  0  0  0  0
  136.8834   -0.0335   -0.0024 H   0  0  0  0  0  0  0  0  0  0  0  0
  136.9525    2.3970   -1.0409 H   0  0  0  0  0  0  0  0  0  0  0  0
  135.1029    4.2035   -1.7220 H   0  0  0  0  0  0  0  0  0  0  0  0
  133.1353    0.7743   -0.2464 H   0  0  0  0  0  0  0  0  0  0  0  0
  129.7514    4.3396   -1.3873 H   0  0  0  0  0  0  0  0  0  0  0  0
  127.8823    2.5320   -0.7077 H   0  0  0  0  0  0  0  0  0  0  0  0
  127.8841   -2.5206    0.7771 H   0  0  0  0  0  0  0  0  0  0  0  0
  129.7398   -4.3378    1.3977 H   0  0  0  0  0  0  0  0  0  0  0  0
  133.4955   -5.4651   -0.0341 H   0  0  0  0  0  0  0  0  0  0  0  0
  133.5121   -7.7890    0.7977 H   0  0  0  0  0  0  0  0  0  0  0  0
  132.4534   -8.3390    2.9667 H   0  0  0  0  0  0  0  0  0  0  0  0
  131.3851   -6.5499    4.3031 H   0  0  0  0  0  0  0  0  0  0  0  0
  131.3826   -4.2235    3.4798 H   0  0  0  0  0  0  0  0  0  0  0  0
  135.1002   -4.2362    1.6790 H   0  0  0  0  0  0  0  0  0  0  0  0
  136.9579   -2.4062    1.0078 H   0  0  0  0  0  0  0  0  0  0  0  0
  131.6896   -0.7577    0.3025 H   0  0  0  0  0  0  0  0  0  0  0  0
  133.4595    5.4878   -0.0802 H   0  0  0  0  0  0  0  0  0  0  0  0
  133.4585    7.7807   -0.9930 H   0  0  0  0  0  0  0  0  0  0  0  0
  132.3819    8.2495   -3.1721 H   0  0  0  0  0  0  0  0  0  0  0  0
  131.3112    6.4102   -4.4365 H   0  0  0  0  0  0  0  0  0  0  0  0
  131.3252    4.1137   -3.5311 H   0  0  0  0  0  0  0  0  0  0  0  0
   82.7268    0.0077    0.0332 C   0  0  0  0  0  0  0  0  0  0  0  0
   83.9437    0.0073    0.0178 C   0  0  0  0  0  0  0  0  0  0  0  0
   93.6302    0.0235   -0.1139 C   0  0  0  0  0  0  0  0  0  0  0  0
   94.8481    0.0222   -0.1168 C   0  0  0  0  0  0  0  0  0  0  0  0
  104.5434    0.0377   -0.1008 C   0  0  0  0  0  0  0  0  0  0  0  0
  105.7619    0.0359   -0.1004 C   0  0  0  0  0  0  0  0  0  0  0  0
  115.4648    0.0199   -0.0694 C   0  0  0  0  0  0  0  0  0  0  0  0
  116.6833    0.0170   -0.0571 C   0  0  0  0  0  0  0  0  0  0  0  0
  126.3779    0.0277    0.0298 C   0  0  0  0  0  0  0  0  0  0  0  0
  127.5945    0.0259    0.0249 C   0  0  0  0  0  0  0  0  0  0  0  0
   85.3522    0.0089   -0.0010 C   0  0  0  0  0  0  0  0  0  0  0  0
   85.9781    1.2642    0.1183 C   0  0  0  0  0  0  0  0  0  0  0  0
   85.3340    2.5128    0.3144 C   0  0  0  0  0  0  0  0  0  0  0  0
   86.2987    3.4821    0.3644 C   0  0  0  0  0  0  0  0  0  0  0  0
   87.5611    2.8526    0.1925 C   0  0  0  0  0  0  0  0  0  0  0  0
   87.3176    1.5116    0.0614 N   0  0  0  0  0  0  0  0  0  0  0  0
   88.8182    3.4690    0.1622 C   0  0  0  0  0  0  0  0  0  0  0  0
   90.0423    2.8095    0.0425 C   0  0  0  0  0  0  0  0  0  0  0  0
   91.3180    3.4919   -0.0752 C   0  0  0  0  0  0  0  0  0  0  0  0
   92.2603    2.5291   -0.1507 C   0  0  0  0  0  0  0  0  0  0  0  0
   90.2295    1.4607    0.0129 N   0  0  0  0  0  0  0  0  0  0  0  0
   91.5598    1.2624   -0.0829 C   0  0  0  0  0  0  0  0  0  0  0  0
   92.2230    0.0186   -0.1031 C   0  0  0  0  0  0  0  0  0  0  0  0
   91.5977   -1.2433   -0.1097 C   0  0  0  0  0  0  0  0  0  0  0  0
   92.2437   -2.5059   -0.0786 C   0  0  0  0  0  0  0  0  0  0  0  0
   91.2787   -3.4749   -0.1214 C   0  0  0  0  0  0  0  0  0  0  0  0
   90.0135   -2.8305   -0.1842 C   0  0  0  0  0  0  0  0  0  0  0  0
   88.7556   -3.4418   -0.2500 C   0  0  0  0  0  0  0  0  0  0  0  0
   88.7454   -4.9237   -0.3311 C   0  0  0  0  0  0  0  0  0  0  0  0
   89.3499   -5.5785   -1.4051 C   0  0  0  0  0  0  0  0  0  0  0  0
   89.3353   -6.9632   -1.4803 C   0  0  0  0  0  0  0  0  0  0  0  0
   88.7238   -7.7102   -0.4827 C   0  0  0  0  0  0  0  0  0  0  0  0
   88.1234   -7.0663    0.5908 C   0  0  0  0  0  0  0  0  0  0  0  0
   88.1308   -5.6818    0.6666 C   0  0  0  0  0  0  0  0  0  0  0  0
   87.5287   -2.7763   -0.2460 C   0  0  0  0  0  0  0  0  0  0  0  0
   86.2475   -3.4435   -0.3927 C   0  0  0  0  0  0  0  0  0  0  0  0
   85.3050   -2.4809   -0.3214 C   0  0  0  0  0  0  0  0  0  0  0  0
   86.0109   -1.2285   -0.1371 C   0  0  0  0  0  0  0  0  0  0  0  0
   87.3440   -1.4342   -0.1129 N   0  0  0  0  0  0  0  0  0  0  0  0
   90.2567   -1.4830   -0.1607 N   0  0  0  0  0  0  0  0  0  0  0  0
   88.8317    4.9492    0.2686 C   0  0  0  0  0  0  0  0  0  0  0  0
   88.1913    5.7369   -0.6890 C   0  0  0  0  0  0  0  0  0  0  0  0
   88.2088    7.1197   -0.5851 C   0  0  0  0  0  0  0  0  0  0  0  0
   88.8595    7.7320    0.4773 C   0  0  0  0  0  0  0  0  0  0  0  0
   89.4968    6.9553    1.4355 C   0  0  0  0  0  0  0  0  0  0  0  0
   89.4863    5.5727    1.3321 C   0  0  0  0  0  0  0  0  0  0  0  0
   84.2690    2.6449    0.4157 H   0  0  0  0  0  0  0  0  0  0  0  0
   86.1507    4.5385    0.5183 H   0  0  0  0  0  0  0  0  0  0  0  0
   88.0363    0.8045   -0.0513 H   0  0  0  0  0  0  0  0  0  0  0  0
   91.4517    4.5609   -0.1134 H   0  0  0  0  0  0  0  0  0  0  0  0
   93.3270    2.6416   -0.2591 H   0  0  0  0  0  0  0  0  0  0  0  0
   93.3101   -2.6487   -0.0193 H   0  0  0  0  0  0  0  0  0  0  0  0
   91.4280   -4.5420   -0.0993 H   0  0  0  0  0  0  0  0  0  0  0  0
   89.8162   -4.9965   -2.1924 H   0  0  0  0  0  0  0  0  0  0  0  0
   89.8025   -7.4610   -2.3229 H   0  0  0  0  0  0  0  0  0  0  0  0
   88.7149   -8.7927   -0.5419 H   0  0  0  0  0  0  0  0  0  0  0  0
   87.6471   -7.6454    1.3742 H   0  0  0  0  0  0  0  0  0  0  0  0
   87.6717   -5.1806    1.5115 H   0  0  0  0  0  0  0  0  0  0  0  0
   86.1102   -4.5016   -0.5465 H   0  0  0  0  0  0  0  0  0  0  0  0
   84.2346   -2.5826   -0.3980 H   0  0  0  0  0  0  0  0  0  0  0  0
   89.5370   -0.7681   -0.1706 H   0  0  0  0  0  0  0  0  0  0  0  0
   87.6944    5.2613   -1.5274 H   0  0  0  0  0  0  0  0  0  0  0  0
   87.7130    7.7219   -1.3384 H   0  0  0  0  0  0  0  0  0  0  0  0
   88.8705    8.8131    0.5582 H   0  0  0  0  0  0  0  0  0  0  0  0
   90.0043    7.4286    2.2688 H   0  0  0  0  0  0  0  0  0  0  0  0
   89.9744    4.9668    2.0873 H   0  0  0  0  0  0  0  0  0  0  0  0
   96.2550    0.0276   -0.1144 C   0  0  0  0  0  0  0  0  0  0  0  0
   96.8809    1.2002    0.3512 C   0  0  0  0  0  0  0  0  0  0  0  0
   96.2399    2.3497    0.8796 C   0  0  0  0  0  0  0  0  0  0  0  0
   97.2063    3.2700    1.1825 C   0  0  0  0  0  0  0  0  0  0  0  0
   98.4668    2.7103    0.8398 C   0  0  0  0  0  0  0  0  0  0  0  0
   98.2206    1.4520    0.3591 N   0  0  0  0  0  0  0  0  0  0  0  0
   99.7235    3.3182    0.9512 C   0  0  0  0  0  0  0  0  0  0  0  0
  100.9464    2.7138    0.6554 C   0  0  0  0  0  0  0  0  0  0  0  0
  102.2174    3.4143    0.6768 C   0  0  0  0  0  0  0  0  0  0  0  0
  103.1621    2.4995    0.3743 C   0  0  0  0  0  0  0  0  0  0  0  0
  101.1383    1.4082    0.3183 N   0  0  0  0  0  0  0  0  0  0  0  0
  102.4687    1.2441    0.1703 C   0  0  0  0  0  0  0  0  0  0  0  0
  103.1368    0.0323   -0.1020 C   0  0  0  0  0  0  0  0  0  0  0  0
  102.5084   -1.1999   -0.3716 C   0  0  0  0  0  0  0  0  0  0  0  0
  103.1465   -2.4497   -0.5749 C   0  0  0  0  0  0  0  0  0  0  0  0
  102.1798   -3.3774   -0.8538 C   0  0  0  0  0  0  0  0  0  0  0  0
  100.9216   -2.7178   -0.8334 C   0  0  0  0  0  0  0  0  0  0  0  0
   99.6662   -3.2807   -1.0958 C   0  0  0  0  0  0  0  0  0  0  0  0
   99.6540   -4.7054   -1.5098 C   0  0  0  0  0  0  0  0  0  0  0  0
  100.3287   -5.1171   -2.6602 C   0  0  0  0  0  0  0  0  0  0  0  0
  100.3118   -6.4495   -3.0441 C   0  0  0  0  0  0  0  0  0  0  0  0
   99.6274   -7.3871   -2.2826 C   0  0  0  0  0  0  0  0  0  0  0  0
   98.9560   -6.9861   -1.1355 C   0  0  0  0  0  0  0  0  0  0  0  0
   98.9659   -5.6539   -0.7514 C   0  0  0  0  0  0  0  0  0  0  0  0
   98.4427   -2.6162   -0.9986 C   0  0  0  0  0  0  0  0  0  0  0  0
   97.1708   -3.2066   -1.3736 C   0  0  0  0  0  0  0  0  0  0  0  0
   96.2260   -2.2824   -1.1015 C   0  0  0  0  0  0  0  0  0  0  0  0
   96.9213   -1.1301   -0.5648 C   0  0  0  0  0  0  0  0  0  0  0  0
   98.2517   -1.3489   -0.5382 N   0  0  0  0  0  0  0  0  0  0  0  0
  101.1691   -1.4084   -0.5177 N   0  0  0  0  0  0  0  0  0  0  0  0
   99.7390    4.7230    1.4284 C   0  0  0  0  0  0  0  0  0  0  0  0
   99.0713    5.7239    0.7211 C   0  0  0  0  0  0  0  0  0  0  0  0
   99.0892    7.0342    1.1750 C   0  0  0  0  0  0  0  0  0  0  0  0
   99.7675    7.3602    2.3415 C   0  0  0  0  0  0  0  0  0  0  0  0
  100.4329    6.3700    3.0517 C   0  0  0  0  0  0  0  0  0  0  0  0
  100.4223    5.0599    2.5981 C   0  0  0  0  0  0  0  0  0  0  0  0
   95.1761    2.4498    1.0198 H   0  0  0  0  0  0  0  0  0  0  0  0
   97.0604    4.2462    1.6152 H   0  0  0  0  0  0  0  0  0  0  0  0
   98.9375    0.7993    0.0605 H   0  0  0  0  0  0  0  0  0  0  0  0
  102.3458    4.4658    0.8761 H   0  0  0  0  0  0  0  0  0  0  0  0
  104.2261    2.6413    0.2777 H   0  0  0  0  0  0  0  0  0  0  0  0
  104.2084   -2.6162   -0.5031 H   0  0  0  0  0  0  0  0  0  0  0  0
  102.3241   -4.4282   -1.0449 H   0  0  0  0  0  0  0  0  0  0  0  0
  100.8519   -4.3843   -3.2646 H   0  0  0  0  0  0  0  0  0  0  0  0
  100.8344   -6.7568   -3.9432 H   0  0  0  0  0  0  0  0  0  0  0  0
   99.6168   -8.4287   -2.5830 H   0  0  0  0  0  0  0  0  0  0  0  0
   98.4222   -7.7149   -0.5357 H   0  0  0  0  0  0  0  0  0  0  0  0
   98.4514   -5.3441    0.1514 H   0  0  0  0  0  0  0  0  0  0  0  0
   97.0414   -4.1866   -1.8036 H   0  0  0  0  0  0  0  0  0  0  0  0
   95.1609   -2.3461   -1.2553 H   0  0  0  0  0  0  0  0  0  0  0  0
  100.4540   -0.6979   -0.4043 H   0  0  0  0  0  0  0  0  0  0  0  0
   98.5529    5.4745   -0.1982 H   0  0  0  0  0  0  0  0  0  0  0  0
   98.5717    7.8046    0.6142 H   0  0  0  0  0  0  0  0  0  0  0  0
   99.7780    8.3845    2.6965 H   0  0  0  0  0  0  0  0  0  0  0  0
  100.9623    6.6188    3.9648 H   0  0  0  0  0  0  0  0  0  0  0  0
  100.9322    4.2853    3.1601 H   0  0  0  0  0  0  0  0  0  0  0  0
  107.1683    0.0377   -0.0967 C   0  0  0  0  0  0  0  0  0  0  0  0
  107.8012    1.1603    0.4735 C   0  0  0  0  0  0  0  0  0  0  0  0
  107.1705    2.2585    1.1110 C   0  0  0  0  0  0  0  0  0  0  0  0
  108.1416    3.1540    1.4690 C   0  0  0  0  0  0  0  0  0  0  0  0
  109.3950    2.6295    1.0534 C   0  0  0  0  0  0  0  0  0  0  0  0
  109.1407    1.4131    0.4783 N   0  0  0  0  0  0  0  0  0  0  0  0
  110.6513    3.2365    1.1756 C   0  0  0  0  0  0  0  0  0  0  0  0
  111.8700    2.6585    0.8156 C   0  0  0  0  0  0  0  0  0  0  0  0
  113.1377    3.3644    0.8455 C   0  0  0  0  0  0  0  0  0  0  0  0
  114.0814    2.4687    0.4874 C   0  0  0  0  0  0  0  0  0  0  0  0
  112.0617    1.3717    0.4132 N   0  0  0  0  0  0  0  0  0  0  0  0
  113.3907    1.2200    0.2405 C   0  0  0  0  0  0  0  0  0  0  0  0
  114.0582    0.0196   -0.0804 C   0  0  0  0  0  0  0  0  0  0  0  0
  113.4240   -1.1958   -0.4069 C   0  0  0  0  0  0  0  0  0  0  0  0
  114.0526   -2.4406   -0.6626 C   0  0  0  0  0  0  0  0  0  0  0  0
  113.0813   -3.3425   -1.0037 C   0  0  0  0  0  0  0  0  0  0  0  0
  111.8297   -2.6710   -0.9705 C   0  0  0  0  0  0  0  0  0  0  0  0
  110.5744   -3.2018   -1.2939 C   0  0  0  0  0  0  0  0  0  0  0  0
  110.5565   -4.5967   -1.7984 C   0  0  0  0  0  0  0  0  0  0  0  0
  111.2607   -4.9453   -2.9520 C   0  0  0  0  0  0  0  0  0  0  0  0
  111.2397   -6.2509   -3.4188 C   0  0  0  0  0  0  0  0  0  0  0  0
  110.5217   -7.2247   -2.7378 C   0  0  0  0  0  0  0  0  0  0  0  0
  109.8203   -6.8866   -1.5884 C   0  0  0  0  0  0  0  0  0  0  0  0
  109.8341   -5.5810   -1.1217 C   0  0  0  0  0  0  0  0  0  0  0  0
  109.3557   -2.5313   -1.1786 C   0  0  0  0  0  0  0  0  0  0  0  0
  108.0883   -3.0764   -1.6290 C   0  0  0  0  0  0  0  0  0  0  0  0
  107.1446   -2.1695   -1.3002 C   0  0  0  0  0  0  0  0  0  0  0  0
  107.8355   -1.0742   -0.6513 C   0  0  0  0  0  0  0  0  0  0  0  0
  109.1640   -1.3038   -0.6205 N   0  0  0  0  0  0  0  0  0  0  0  0
  112.0849   -1.3831   -0.5819 N   0  0  0  0  0  0  0  0  0  0  0  0
  110.6727    4.6079    1.7403 C   0  0  0  0  0  0  0  0  0  0  0  0
  109.9723    5.6451    1.1226 C   0  0  0  0  0  0  0  0  0  0  0  0
  109.9982    6.9245    1.6570 C   0  0  0  0  0  0  0  0  0  0  0  0
  110.7174    7.1831    2.8160 C   0  0  0  0  0  0  0  0  0  0  0  0
  111.4152    6.1564    3.4378 C   0  0  0  0  0  0  0  0  0  0  0  0
  111.3964    4.8773    2.9034 C   0  0  0  0  0  0  0  0  0  0  0  0
  106.1103    2.3426    1.2833 H   0  0  0  0  0  0  0  0  0  0  0  0
  108.0034    4.0899    1.9852 H   0  0  0  0  0  0  0  0  0  0  0  0
  109.8513    0.7887    0.1120 H   0  0  0  0  0  0  0  0  0  0  0  0
  113.2646    4.4072    1.0873 H   0  0  0  0  0  0  0  0  0  0  0  0
  115.1426    2.6209    0.3774 H   0  0  0  0  0  0  0  0  0  0  0  0
  115.1115   -2.6218   -0.5828 H   0  0  0  0  0  0  0  0  0  0  0  0
  113.2182   -4.3837   -1.2458 H   0  0  0  0  0  0  0  0  0  0  0  0
  111.8104   -4.1836   -3.4939 H   0  0  0  0  0  0  0  0  0  0  0  0
  111.7855   -6.5088   -4.3196 H   0  0  0  0  0  0  0  0  0  0  0  0
  110.5085   -8.2455   -3.1027 H   0  0  0  0  0  0  0  0  0  0  0  0
  109.2602   -7.6439   -1.0512 H   0  0  0  0  0  0  0  0  0  0  0  0
  109.2961   -5.3209   -0.2170 H   0  0  0  0  0  0  0  0  0  0  0  0
  107.9613   -4.0152   -2.1433 H   0  0  0  0  0  0  0  0  0  0  0  0
  106.0834   -2.2094   -1.4838 H   0  0  0  0  0  0  0  0  0  0  0  0
  111.3753   -0.6719   -0.4414 H   0  0  0  0  0  0  0  0  0  0  0  0
  109.4220    5.4495    0.2089 H   0  0  0  0  0  0  0  0  0  0  0  0
  109.4552    7.7239    1.1651 H   0  0  0  0  0  0  0  0  0  0  0  0
  110.7346    8.1833    3.2338 H   0  0  0  0  0  0  0  0  0  0  0  0
  111.9765    6.3524    4.3447 H   0  0  0  0  0  0  0  0  0  0  0  0
  111.9318    4.0736    3.3967 H   0  0  0  0  0  0  0  0  0  0  0  0
  118.0900    0.0191   -0.0389 C   0  0  0  0  0  0  0  0  0  0  0  0
  118.7144    1.1364    0.5506 C   0  0  0  0  0  0  0  0  0  0  0  0
  118.0715    2.2265    1.1903 C   0  0  0  0  0  0  0  0  0  0  0  0
  119.0349    3.1163    1.5803 C   0  0  0  0  0  0  0  0  0  0  0  0
  120.2968    2.5960    1.1849 C   0  0  0  0  0  0  0  0  0  0  0  0
  120.0537    1.3895    0.5841 N   0  0  0  0  0  0  0  0  0  0  0  0
  121.5506    3.1927    1.3654 C   0  0  0  0  0  0  0  0  0  0  0  0
  122.7783    2.6196    1.0291 C   0  0  0  0  0  0  0  0  0  0  0  0
  124.0534    3.3005    1.1661 C   0  0  0  0  0  0  0  0  0  0  0  0
  125.0008    2.4173    0.7885 C   0  0  0  0  0  0  0  0  0  0  0  0
  122.9700    1.3607    0.5492 N   0  0  0  0  0  0  0  0  0  0  0  0
  124.3034    1.2033    0.4136 C   0  0  0  0  0  0  0  0  0  0  0  0
  124.9681    0.0244    0.0263 C   0  0  0  0  0  0  0  0  0  0  0  0
  124.3465   -1.1760   -0.3646 C   0  0  0  0  0  0  0  0  0  0  0  0
  124.9941   -2.3853   -0.7267 C   0  0  0  0  0  0  0  0  0  0  0  0
  124.0316   -3.2849   -1.0964 C   0  0  0  0  0  0  0  0  0  0  0  0
  122.7676   -2.6448   -0.9846 C   0  0  0  0  0  0  0  0  0  0  0  0
  121.5142   -3.1796   -1.3068 C   0  0  0  0  0  0  0  0  0  0  0  0
  121.5048   -4.5555   -1.8628 C   0  0  0  0  0  0  0  0  0  0  0  0
  122.1760   -4.8485   -3.0508 C   0  0  0  0  0  0  0  0  0  0  0  0
  122.1645   -6.1372   -3.5631 C   0  0  0  0  0  0  0  0  0  0  0  0
  121.4884   -7.1486   -2.8945 C   0  0  0  0  0  0  0  0  0  0  0  0
  120.8187   -6.8653   -1.7118 C   0  0  0  0  0  0  0  0  0  0  0  0
  120.8234   -5.5770   -1.1992 C   0  0  0  0  0  0  0  0  0  0  0  0
  120.2899   -2.5272   -1.1533 C   0  0  0  0  0  0  0  0  0  0  0  0
  119.0237   -3.0742   -1.6048 C   0  0  0  0  0  0  0  0  0  0  0  0
  118.0763   -2.1775   -1.2599 C   0  0  0  0  0  0  0  0  0  0  0  0
  118.7631   -1.0866   -0.5991 C   0  0  0  0  0  0  0  0  0  0  0  0
  120.0926   -1.3110   -0.5726 N   0  0  0  0  0  0  0  0  0  0  0  0
  123.0073   -1.3796   -0.5196 N   0  0  0  0  0  0  0  0  0  0  0  0
  121.5549    4.5470    1.9721 C   0  0  0  0  0  0  0  0  0  0  0  0
  120.9031    5.6082    1.3422 C   0  0  0  0  0  0  0  0  0  0  0  0
  120.9101    6.8727    1.9116 C   0  0  0  0  0  0  0  0  0  0  0  0
  121.5612    7.0917    3.1180 C   0  0  0  0  0  0  0  0  0  0  0  0
  122.2092    6.0405    3.7524 C   0  0  0  0  0  0  0  0  0  0  0  0
  122.2095    4.7760    3.1833 C   0  0  0  0  0  0  0  0  0  0  0  0
  117.0083    2.3084    1.3431 H   0  0  0  0  0  0  0  0  0  0  0  0
  118.8866    4.0455    2.1057 H   0  0  0  0  0  0  0  0  0  0  0  0
  120.7722    0.7720    0.2214 H   0  0  0  0  0  0  0  0  0  0  0  0
  124.1835    4.3189    1.4946 H   0  0  0  0  0  0  0  0  0  0  0  0
  126.0701    2.5513    0.7583 H   0  0  0  0  0  0  0  0  0  0  0  0
  126.0605   -2.5408   -0.7058 H   0  0  0  0  0  0  0  0  0  0  0  0
  124.1828   -4.3036   -1.4141 H   0  0  0  0  0  0  0  0  0  0  0  0
  122.6926   -4.0573   -3.5828 H   0  0  0  0  0  0  0  0  0  0  0  0
  122.6852   -6.3521   -4.4898 H   0  0  0  0  0  0  0  0  0  0  0  0
  121.4828   -8.1561   -3.2949 H   0  0  0  0  0  0  0  0  0  0  0  0
  120.2906   -7.6522   -1.1847 H   0  0  0  0  0  0  0  0  0  0  0  0
  120.3098   -5.3594   -0.2694 H   0  0  0  0  0  0  0  0  0  0  0  0
  118.9001   -4.0071   -2.1307 H   0  0  0  0  0  0  0  0  0  0  0  0
  117.0147   -2.2215   -1.4399 H   0  0  0  0  0  0  0  0  0  0  0  0
  122.2879   -0.6909   -0.3261 H   0  0  0  0  0  0  0  0  0  0  0  0
  120.4052    5.4425    0.3932 H   0  0  0  0  0  0  0  0  0  0  0  0
  120.4055    7.6911    1.4101 H   0  0  0  0  0  0  0  0  0  0  0  0
  121.5637    8.0802    3.5630 H   0  0  0  0  0  0  0  0  0  0  0  0
  122.7166    6.2056    4.6964 H   0  0  0  0  0  0  0  0  0  0  0  0
  122.7055    3.9532    3.6860 H   0  0  0  0  0  0  0  0  0  0  0  0
  1  2  4  0  0  0  0
  2  3  4  0  0  0  0
  3  4  2  0  0  0  0
  4  5  4  0  0  0  0
  2  6  4  0  0  0  0
  5  6  4  0  0  0  0
  5  7  4  0  0  0  0
  7  8  4  0  0  0  0
  8  9  1  0  0  0  0
  9 10  2  0  0  0  0
  8 11  4  0  0  0  0
 10 12  1  0  0  0  0
 11 12  4  0  0  0  0
 12 13  4  0  0  0  0
 13 14  4  0  0  0  0
 14 15  4  0  0  0  0
 15 16  2  0  0  0  0
 16 17  4  0  0  0  0
 17 18  4  0  0  0  0
 18 19  1  0  0  0  0
 19 20  4  0  0  0  0
 20 21  4  0  0  0  0
 21 22  4  0  0  0  0
 22 23  4  0  0  0  0
 19 24  4  0  0  0  0
 23 24  4  0  0  0  0
 18 25  4  0  0  0  0
 25 26  1  0  0  0  0
 26 27  2  0  0  0  0
  1 28  4  0  0  0  0
 27 28  1  0  0  0  0
 25 29  4  0  0  0  0
 28 29  4  0  0  0  0
 14 30  4  0  0  0  0
 17 30  4  0  0  0  0
  7 31  1  0  0  0  0
 31 32  4  0  0  0  0
 32 33  4  0  0  0  0
 33 34  4  0  0  0  0
 34 35  4  0  0  0  0
 31 36  4  0  0  0  0
 35 36  4  0  0  0  0
  1 37  1  0  0  0  0
  3 38  1  0  0  0  0
  4 39  1  0  0  0  0
  6 40  1  0  0  0  0
  9 41  1  0  0  0  0
 10 42  1  0  0  0  0
 15 43  1  0  0  0  0
 16 44  1  0  0  0  0
 20 45  1  0  0  0  0
 21 46  1  0  0  0  0
 22 47  1  0  0  0  0
 23 48  1  0  0  0  0
 24 49  1  0  0  0  0
 26 50  1  0  0  0  0
 27 51  1  0  0  0  0
 30 52  1  0  0  0  0
 32 53  1  0  0  0  0
 33 54  1  0  0  0  0
 34 55  1  0  0  0  0
 35 56  1  0  0  0  0
 36 57  1  0  0  0  0
 58 59  4  0  0  0  0
 59 60  4  0  0  0  0
 60 61  2  0  0  0  0
 61 62  4  0  0  0  0
 59 63  4  0  0  0  0
 62 63  4  0  0  0  0
 62 64  4  0  0  0  0
 64 65  4  0  0  0  0
 65 66  1  0  0  0  0
 66 67  2  0  0  0  0
 65 68  4  0  0  0  0
 67 69  1  0  0  0  0
 68 69  4  0  0  0  0
 69 70  4  0  0  0  0
 70 71  4  0  0  0  0
 71 72  4  0  0  0  0
 72 73  2  0  0  0  0
 73 74  4  0  0  0  0
 74 75  4  0  0  0  0
 75 76  1  0  0  0  0
 76 77  4  0  0  0  0
 77 78  4  0  0  0  0
 78 79  4  0  0  0  0
 79 80  4  0  0  0  0
 76 81  4  0  0  0  0
 80 81  4  0  0  0  0
 75 82  4  0  0  0  0
 82 83  1  0  0  0  0
 83 84  2  0  0  0  0
 58 85  4  0  0  0  0
 84 85  1  0  0  0  0
 82 86  4  0  0  0  0
 85 86  4  0  0  0  0
 71 87  4  0  0  0  0
 74 87  4  0  0  0  0
 64 88  1  0  0  0  0
 88 89  4  0  0  0  0
 89 90  4  0  0  0  0
 90 91  4  0  0  0  0
 91 92  4  0  0  0  0
 88 93  4  0  0  0  0
 92 93  4  0  0  0  0
 58 94  1  0  0  0  0
 60 95  1  0  0  0  0
 61 96  1  0  0  0  0
 63 97  1  0  0  0  0
 66 98  1  0  0  0  0
 67 99  1  0  0  0  0
 72100  1  0  0  0  0
 73101  1  0  0  0  0
 77102  1  0  0  0  0
 78103  1  0  0  0  0
 79104  1  0  0  0  0
 80105  1  0  0  0  0
 81106  1  0  0  0  0
 83107  1  0  0  0  0
 84108  1  0  0  0  0
 87109  1  0  0  0  0
 89110  1  0  0  0  0
 90111  1  0  0  0  0
 91112  1  0  0  0  0
 92113  1  0  0  0  0
 93114  1  0  0  0  0
 13115  4  0  0  0  0
115116  3  0  0  0  0
117118  3  0  0  0  0
119120  3  0  0  0  0
121122  3  0  0  0  0
 70124  4  0  0  0  0
123124  3  0  0  0  0
116125  4  0  0  0  0
125126  4  0  0  0  0
126127  4  0  0  0  0
127128  2  0  0  0  0
128129  4  0  0  0  0
126130  4  0  0  0  0
129130  4  0  0  0  0
129131  4  0  0  0  0
131132  4  0  0  0  0
132133  1  0  0  0  0
133134  2  0  0  0  0
132135  4  0  0  0  0
134136  1  0  0  0  0
135136  4  0  0  0  0
117137  4  0  0  0  0
136137  4  0  0  0  0
137138  4  0  0  0  0
138139  4  0  0  0  0
139140  2  0  0  0  0
140141  4  0  0  0  0
141142  4  0  0  0  0
142143  1  0  0  0  0
143144  4  0  0  0  0
144145  4  0  0  0  0
145146  4  0  0  0  0
146147  4  0  0  0  0
143148  4  0  0  0  0
147148  4  0  0  0  0
142149  4  0  0  0  0
149150  1  0  0  0  0
150151  2  0  0  0  0
125152  4  0  0  0  0
151152  1  0  0  0  0
149153  4  0  0  0  0
152153  4  0  0  0  0
138154  4  0  0  0  0
141154  4  0  0  0  0
131155  1  0  0  0  0
155156  4  0  0  0  0
156157  4  0  0  0  0
157158  4  0  0  0  0
158159  4  0  0  0  0
155160  4  0  0  0  0
159160  4  0  0  0  0
127161  1  0  0  0  0
128162  1  0  0  0  0
130163  1  0  0  0  0
133164  1  0  0  0  0
134165  1  0  0  0  0
139166  1  0  0  0  0
140167  1  0  0  0  0
144168  1  0  0  0  0
145169  1  0  0  0  0
146170  1  0  0  0  0
147171  1  0  0  0  0
148172  1  0  0  0  0
150173  1  0  0  0  0
151174  1  0  0  0  0
154175  1  0  0  0  0
156176  1  0  0  0  0
157177  1  0  0  0  0
158178  1  0  0  0  0
159179  1  0  0  0  0
160180  1  0  0  0  0
118181  4  0  0  0  0
181182  4  0  0  0  0
182183  4  0  0  0  0
183184  2  0  0  0  0
184185  4  0  0  0  0
182186  4  0  0  0  0
185186  4  0  0  0  0
185187  4  0  0  0  0
187188  4  0  0  0  0
188189  1  0  0  0  0
189190  2  0  0  0  0
188191  4  0  0  0  0
190192  1  0  0  0  0
191192  4  0  0  0  0
119193  4  0  0  0  0
192193  4  0  0  0  0
193194  4  0  0  0  0
194195  4  0  0  0  0
195196  2  0  0  0  0
196197  4  0  0  0  0
197198  4  0  0  0  0
198199  1  0  0  0  0
199200  4  0  0  0  0
200201  4  0  0  0  0
201202  4  0  0  0  0
202203  4  0  0  0  0
199204  4  0  0  0  0
203204  4  0  0  0  0
198205  4  0  0  0  0
205206  1  0  0  0  0
206207  2  0  0  0  0
181208  4  0  0  0  0
207208  1  0  0  0  0
205209  4  0  0  0  0
208209  4  0  0  0  0
194210  4  0  0  0  0
197210  4  0  0  0  0
187211  1  0  0  0  0
211212  4  0  0  0  0
212213  4  0  0  0  0
213214  4  0  0  0  0
214215  4  0  0  0  0
211216  4  0  0  0  0
215216  4  0  0  0  0
183217  1  0  0  0  0
184218  1  0  0  0  0
186219  1  0  0  0  0
189220  1  0  0  0  0
190221  1  0  0  0  0
195222  1  0  0  0  0
196223  1  0  0  0  0
200224  1  0  0  0  0
201225  1  0  0  0  0
202226  1  0  0  0  0
203227  1  0  0  0  0
204228  1  0  0  0  0
206229  1  0  0  0  0
207230  1  0  0  0  0
210231  1  0  0  0  0
212232  1  0  0  0  0
213233  1  0  0  0  0
214234  1  0  0  0  0
215235  1  0  0  0  0
216236  1  0  0  0  0
120237  4  0  0  0  0
237238  4  0  0  0  0
238239  4  0  0  0  0
239240  2  0  0  0  0
240241  4  0  0  0  0
238242  4  0  0  0  0
241242  4  0  0  0  0
241243  4  0  0  0  0
243244  4  0  0  0  0
244245  1  0  0  0  0
245246  2  0  0  0  0
244247  4  0  0  0  0
246248  1  0  0  0  0
247248  4  0  0  0  0
121249  4  0  0  0  0
248249  4  0  0  0  0
249250  4  0  0  0  0
250251  4  0  0  0  0
251252  2  0  0  0  0
252253  4  0  0  0  0
253254  4  0  0  0  0
254255  1  0  0  0  0
255256  4  0  0  0  0
256257  4  0  0  0  0
257258  4  0  0  0  0
258259  4  0  0  0  0
255260  4  0  0  0  0
259260  4  0  0  0  0
254261  4  0  0  0  0
261262  1  0  0  0  0
262263  2  0  0  0  0
237264  4  0  0  0  0
263264  1  0  0  0  0
261265  4  0  0  0  0
264265  4  0  0  0  0
250266  4  0  0  0  0
253266  4  0  0  0  0
243267  1  0  0  0  0
267268  4  0  0  0  0
268269  4  0  0  0  0
269270  4  0  0  0  0
270271  4  0  0  0  0
267272  4  0  0  0  0
271272  4  0  0  0  0
239273  1  0  0  0  0
240274  1  0  0  0  0
242275  1  0  0  0  0
245276  1  0  0  0  0
246277  1  0  0  0  0
251278  1  0  0  0  0
252279  1  0  0  0  0
256280  1  0  0  0  0
257281  1  0  0  0  0
258282  1  0  0  0  0
259283  1  0  0  0  0
260284  1  0  0  0  0
262285  1  0  0  0  0
263286  1  0  0  0  0
266287  1  0  0  0  0
268288  1  0  0  0  0
269289  1  0  0  0  0
270290  1  0  0  0  0
271291  1  0  0  0  0
272292  1  0  0  0  0
122293  4  0  0  0  0
293294  4  0  0  0  0
294295  4  0  0  0  0
295296  2  0  0  0  0
296297  4  0  0  0  0
294298  4  0  0  0  0
297298  4  0  0  0  0
297299  4  0  0  0  0
299300  4  0  0  0  0
300301  1  0  0  0  0
301302  2  0  0  0  0
300303  4  0  0  0  0
302304  1  0  0  0  0
303304  4  0  0  0  0
123305  4  0  0  0  0
304305  4  0  0  0  0
305306  4  0  0  0  0
306307  4  0  0  0  0
307308  2  0  0  0  0
308309  4  0  0  0  0
309310  4  0  0  0  0
310311  1  0  0  0  0
311312  4  0  0  0  0
312313  4  0  0  0  0
313314  4  0  0  0  0
314315  4  0  0  0  0
311316  4  0  0  0  0
315316  4  0  0  0  0
310317  4  0  0  0  0
317318  1  0  0  0  0
318319  2  0  0  0  0
293320  4  0  0  0  0
319320  1  0  0  0  0
317321  4  0  0  0  0
320321  4  0  0  0  0
306322  4  0  0  0  0
309322  4  0  0  0  0
299323  1  0  0  0  0
323324  4  0  0  0  0
324325  4  0  0  0  0
325326  4  0  0  0  0
326327  4  0  0  0  0
323328  4  0  0  0  0
327328  4  0  0  0  0
295329  1  0  0  0  0
296330  1  0  0  0  0
298331  1  0  0  0  0
301332  1  0  0  0  0
302333  1  0  0  0  0
307334  1  0  0  0  0
308335  1  0  0  0  0
312336  1  0  0  0  0
313337  1  0  0  0  0
314338  1  0  0  0  0
315339  1  0  0  0  0
316340  1  0  0  0  0
318341  1  0  0  0  0
319342  1  0  0  0  0
322343  1  0  0  0  0
324344  1  0  0  0  0
325345  1  0  0  0  0
326346  1  0  0  0  0
327347  1  0  0  0  0
328348  1  0  0  0  0
M  END
