590

C 114.971891 0.016945 -0.122261
C 115.706646 -1.265292 -0.619749
C 115.111563 -2.358263 -1.206553
C 116.137022 -3.308654 -1.450863
C 117.323188 -2.764246 -0.997867
N 117.056700 -1.496270 -0.546157
C 118.740990 -3.471247 -0.973439
C 118.770179 -4.942066 -1.141826
C 119.064065 -5.513161 -2.387346
C 119.079669 -6.901205 -2.538882
C 118.799620 -7.716875 -1.439239
C 118.810849 -9.187129 -1.575771
O 119.048866 -9.760644 -2.632464
C 118.504937 -7.157800 -0.191800
C 118.490295 -5.770245 -0.047319
C 119.870920 -2.754142 -0.731166
C 121.171727 -3.384647 -0.635995
C 122.072989 -2.447732 -0.365538
N 120.068494 -1.416008 -0.515639
C 121.396365 -1.168509 -0.281952
C 122.062060 -0.014413 -0.010664
C 121.283957 1.366955 0.055437
C 121.826058 2.619531 -0.155768
C 120.799494 3.571870 0.061797
C 119.656261 2.873549 0.387758
N 119.947738 1.530898 0.328963
C 118.243888 3.499702 0.743809
C 118.203726 4.905640 1.200570
C 118.500581 5.229142 2.530339
C 118.472121 6.559771 2.954206
C 118.148172 7.567031 2.041177
C 118.113999 8.980726 2.466181
O 118.353321 9.343068 3.612407
C 117.850923 7.256038 0.710333
C 117.880284 5.924899 0.293768
C 117.119124 2.749431 0.615852
C 115.794472 3.257066 0.927635
C 114.909933 2.295857 0.678995
C 115.634653 1.140557 0.210087
N 116.957148 1.456610 0.203822
H 113.892410 -0.017012 -0.035409
H 114.059080 -2.466534 -1.419502
H 116.017887 -4.289560 -1.885559
H 117.750922 -0.832591 -0.210935
H 119.283719 -4.861321 -3.230764
H 119.311183 -7.334193 -3.507913
H 118.588048 -9.758968 -0.659595
H 118.286697 -7.777470 0.671679
H 118.265059 -5.314089 0.914966
H 121.384293 -4.432086 -0.753272
H 123.124260 -2.630110 -0.237345
H 122.850506 2.829651 -0.423184
H 120.887496 4.645458 -0.007116
H 119.264528 0.783213 0.419023
H 118.750436 4.431673 3.227511
H 118.702115 6.799625 3.988294
H 117.856993 9.714348 1.683409
H 117.595855 8.026577 -0.010445
H 117.649276 5.659496 -0.736845
H 115.562379 4.238790 1.299014
H 113.845058 2.359174 0.808604
C 252.536811 0.021400 -0.120912
C 251.802055 1.364238 0.176429
C 252.397139 2.599144 0.294467
C 251.371680 3.525431 0.618385
C 250.185513 2.821178 0.693307
N 250.452002 1.515600 0.365787
C 248.767711 3.395882 1.105814
C 248.738522 4.713072 1.781590
C 248.444636 5.879152 1.062058
C 248.429033 7.118123 1.705938
C 248.709082 7.186810 3.073350
C 248.697852 8.485859 3.775317
O 248.459836 9.549208 3.214240
C 249.003765 6.029666 3.801147
C 249.018407 4.795016 3.151667
C 247.637781 2.664829 0.909608
C 246.336975 3.136643 1.338544
C 245.435712 2.207064 1.043857
N 247.440208 1.431889 0.346657
C 246.112336 1.096331 0.403804
C 245.446641 -0.014413 -0.010664
C 246.224745 -1.200437 -0.721926
C 245.682644 -2.125475 -1.592477
C 246.709207 -3.038547 -1.939728
C 247.852440 -2.638329 -1.281148
N 247.560963 -1.488572 -0.585283
C 249.264813 -3.356821 -1.332233
C 249.304976 -4.779991 -1.732079
C 249.008121 -5.786798 -0.805105
C 249.036581 -7.129062 -1.190546
C 249.360529 -7.460676 -2.508964
C 249.394702 -8.872685 -2.939537
O 249.155381 -9.809995 -2.186824
C 249.657778 -6.463682 -3.443771
C 249.628417 -5.125044 -3.051972
C 250.389577 -2.661585 -1.022514
C 251.714229 -3.256908 -1.044688
C 252.598768 -2.319218 -0.718373
C 251.874049 -1.097850 -0.467666
N 250.551554 -1.357345 -0.648197
H 253.616291 0.001476 -0.029811
H 253.449622 2.807355 0.177344
H 251.490815 4.582718 0.800820
H 249.757780 0.777439 0.276555
H 248.224983 5.804649 -0.001285
H 248.197518 8.015921 1.139847
H 248.920653 8.453439 4.854820
H 249.222005 6.066275 4.863336
H 249.243642 3.881684 3.699294
H 246.124409 4.073212 1.821992
H 244.384441 2.287700 1.251687
H 244.658195 -2.151965 -1.931535
H 246.621205 -3.893592 -2.592599
H 248.244173 -0.916424 -0.095599
H 248.758265 -5.510000 0.217337
H 248.806586 -7.902252 -0.463191
H 249.651709 -9.048877 -3.997785
H 249.912846 -6.704978 -4.470916
H 249.859425 -4.332524 -3.762263
H 251.946323 -4.279752 -1.280259
H 253.663644 -2.443796 -0.645656
C 128.294922 -0.013310 -0.002174
C 127.085983 -0.026765 -0.010621
C 125.664454 -0.017946 -0.022604
C 124.452785 -0.010507 -0.011741
C 129.711527 -0.019985 -0.001641
C 130.932222 -0.010507 -0.011741
C 144.313000 -0.013310 -0.002174
C 143.104061 -0.026765 -0.010621
C 141.682532 -0.017946 -0.022604
C 140.470862 -0.010507 -0.011741
C 145.729604 -0.019985 -0.001641
C 146.950300 -0.010507 -0.011741
C 160.331078 -0.013310 -0.002174
C 159.122139 -0.026765 -0.010621
C 157.700610 -0.017946 -0.022604
C 156.488940 -0.010507 -0.011741
C 161.747682 -0.019985 -0.001641
C 162.968378 -0.010507 -0.011741
C 176.349156 -0.013310 -0.002174
C 175.140216 -0.026765 -0.010621
C 173.718687 -0.017946 -0.022604
C 172.507018 -0.010507 -0.011741
C 177.765760 -0.019985 -0.001641
C 178.986456 -0.010507 -0.011741
C 192.367233 -0.013310 -0.002174
C 191.158294 -0.026765 -0.010621
C 189.736765 -0.017946 -0.022604
C 188.525096 -0.010507 -0.011741
C 193.783838 -0.019985 -0.001641
C 195.004534 -0.010507 -0.011741
C 208.385311 -0.013310 -0.002174
C 207.176372 -0.026765 -0.010621
C 205.754843 -0.017946 -0.022604
C 204.543173 -0.010507 -0.011741
C 209.801916 -0.019985 -0.001641
C 211.022611 -0.010507 -0.011741
C 224.403389 -0.013310 -0.002174
C 223.194450 -0.026765 -0.010621
C 221.772921 -0.017946 -0.022604
C 220.561251 -0.010507 -0.011741
C 225.819993 -0.019985 -0.001641
C 227.040689 -0.010507 -0.011741
C 240.421467 -0.013310 -0.002174
C 239.212528 -0.026765 -0.010621
C 237.790999 -0.017946 -0.022604
C 236.579329 -0.010507 -0.011741
C 241.838071 -0.019985 -0.001641
C 243.058767 -0.010507 -0.011741
C 132.102371 0.005387 0.004440
C 132.887079 0.874779 -1.062455
C 132.345545 1.471615 -2.175798
C 133.384593 2.169087 -2.838203
C 134.535777 1.973537 -2.114292
N 134.234019 1.147304 -1.057784
C 135.954129 2.590040 -2.450297
C 135.991803 3.770572 -3.349327
C 136.216790 3.615291 -4.722323
C 136.259485 4.729840 -5.563673
C 136.071909 6.005055 -5.027527
C 136.114919 7.198342 -5.897405
O 136.276214 7.136377 -7.110670
C 135.840176 6.173775 -3.659849
C 135.800590 5.055266 -2.824486
C 137.084968 2.069852 -1.903466
C 138.391186 2.619682 -2.197973
C 139.302684 1.917360 -1.535487
N 137.284140 1.027062 -1.037037
C 138.624556 0.884343 -0.777975
C 139.306650 0.005387 0.004440
C 138.530551 -1.103596 0.839926
C 139.109695 -2.115778 1.583406
C 138.068499 -2.840588 2.207745
C 136.876221 -2.252547 1.830463
N 137.165377 -1.217212 0.971335
C 135.442228 -2.686154 2.338133
C 135.379357 -3.782416 3.332285
C 135.255135 -5.104720 2.885332
C 135.222323 -6.153639 3.802889
C 135.299913 -5.873314 5.172054
C 135.253522 -6.997718 6.126636
O 135.321850 -6.847616 7.340441
C 135.414201 -4.557628 5.629675
C 135.458917 -3.512169 4.705323
C 134.313405 -2.092966 1.873321
C 133.005403 -2.457371 2.376245
C 132.098171 -1.710110 1.761790
C 132.777927 -0.851352 0.814189
N 134.117227 -1.116857 0.936298
H 131.314283 1.418145 -2.480388
H 133.298856 2.751418 -3.740929
H 134.906674 0.759752 -0.406734
H 136.365533 2.617083 -5.122966
H 136.442111 4.596178 -6.624916
H 135.986638 8.172458 -5.394176
H 135.689833 7.157736 -3.229350
H 135.627260 5.167095 -1.754890
H 138.603650 3.451290 -2.844119
H 140.359615 2.103911 -1.573285
H 140.165865 -2.307654 1.687624
H 138.180479 -3.685258 2.875146
H 136.476512 -0.619435 0.518261
H 135.184387 -5.294891 1.814511
H 135.136939 -7.170498 3.433485
H 135.152331 -8.003065 5.684967
H 135.469687 -4.341093 6.693266
H 135.552014 -2.481423 5.038036
H 132.792870 -3.196699 3.127059
H 131.040891 -1.762032 1.944087
C 148.120448 0.005387 0.004440
C 148.905157 0.874779 -1.062455
C 148.363623 1.471615 -2.175798
C 149.402671 2.169087 -2.838203
C 150.553855 1.973537 -2.114292
N 150.252097 1.147304 -1.057784
C 151.972207 2.590040 -2.450297
C 152.009881 3.770572 -3.349327
C 152.234868 3.615291 -4.722323
C 152.277563 4.729840 -5.563673
C 152.089987 6.005055 -5.027527
C 152.132997 7.198342 -5.897405
O 152.294292 7.136377 -7.110670
C 151.858254 6.173775 -3.659849
C 151.818668 5.055266 -2.824486
C 153.103046 2.069852 -1.903466
C 154.409264 2.619682 -2.197973
C 155.320762 1.917360 -1.535487
N 153.302217 1.027062 -1.037037
C 154.642634 0.884343 -0.777975
C 155.324728 0.005387 0.004440
C 154.548629 -1.103596 0.839926
C 155.127773 -2.115778 1.583406
C 154.086577 -2.840588 2.207745
C 152.894298 -2.252547 1.830463
N 153.183455 -1.217212 0.971335
C 151.460306 -2.686154 2.338133
C 151.397435 -3.782416 3.332285
C 151.273212 -5.104720 2.885332
C 151.240401 -6.153639 3.802889
C 151.317991 -5.873314 5.172054
C 151.271599 -6.997718 6.126636
O 151.339928 -6.847616 7.340441
C 151.432279 -4.557628 5.629675
C 151.476995 -3.512169 4.705323
C 150.331483 -2.092966 1.873321
C 149.023480 -2.457371 2.376245
C 148.116249 -1.710110 1.761790
C 148.796005 -0.851352 0.814189
N 150.135305 -1.116857 0.936298
H 147.332361 1.418145 -2.480388
H 149.316934 2.751418 -3.740929
H 150.924752 0.759752 -0.406734
H 152.383611 2.617083 -5.122966
H 152.460189 4.596178 -6.624916
H 152.004716 8.172458 -5.394176
H 151.707911 7.157736 -3.229350
H 151.645338 5.167095 -1.754890
H 154.621728 3.451290 -2.844119
H 156.377693 2.103911 -1.573285
H 156.183942 -2.307654 1.687624
H 154.198557 -3.685258 2.875146
H 152.494590 -0.619435 0.518261
H 151.202465 -5.294891 1.814511
H 151.155016 -7.170498 3.433485
H 151.170409 -8.003065 5.684967
H 151.487764 -4.341093 6.693266
H 151.570092 -2.481423 5.038036
H 148.810948 -3.196699 3.127059
H 147.058969 -1.762032 1.944087
C 164.138526 0.005387 0.004440
C 164.923235 0.874779 -1.062455
C 164.381701 1.471615 -2.175798
C 165.420749 2.169087 -2.838203
C 166.571933 1.973537 -2.114292
N 166.270175 1.147304 -1.057784
C 167.990284 2.590040 -2.450297
C 168.027959 3.770572 -3.349327
C 168.252946 3.615291 -4.722323
C 168.295641 4.729840 -5.563673
C 168.108065 6.005055 -5.027527
C 168.151074 7.198342 -5.897405
O 168.312370 7.136377 -7.110670
C 167.876332 6.173775 -3.659849
C 167.836746 5.055266 -2.824486
C 169.121123 2.069852 -1.903466
C 170.427341 2.619682 -2.197973
C 171.338840 1.917360 -1.535487
N 169.320295 1.027062 -1.037037
C 170.660712 0.884343 -0.777975
C 171.342806 0.005387 0.004440
C 170.566706 -1.103596 0.839926
C 171.145850 -2.115778 1.583406
C 170.104655 -2.840588 2.207745
C 168.912376 -2.252547 1.830463
N 169.201532 -1.217212 0.971335
C 167.478384 -2.686154 2.338133
C 167.415513 -3.782416 3.332285
C 167.291290 -5.104720 2.885332
C 167.258478 -6.153639 3.802889
C 167.336068 -5.873314 5.172054
C 167.289677 -6.997718 6.126636
O 167.358006 -6.847616 7.340441
C 167.450356 -4.557628 5.629675
C 167.495072 -3.512169 4.705323
C 166.349561 -2.092966 1.873321
C 165.041558 -2.457371 2.376245
C 164.134327 -1.710110 1.761790
C 164.814082 -0.851352 0.814189
N 166.153382 -1.116857 0.936298
H 163.350439 1.418145 -2.480388
H 165.335011 2.751418 -3.740929
H 166.942830 0.759752 -0.406734
H 168.401689 2.617083 -5.122966
H 168.478267 4.596178 -6.624916
H 168.022794 8.172458 -5.394176
H 167.725988 7.157736 -3.229350
H 167.663416 5.167095 -1.754890
H 170.639806 3.451290 -2.844119
H 172.395770 2.103911 -1.573285
H 172.202020 -2.307654 1.687624
H 170.216634 -3.685258 2.875146
H 168.512667 -0.619435 0.518261
H 167.220542 -5.294891 1.814511
H 167.173094 -7.170498 3.433485
H 167.188486 -8.003065 5.684967
H 167.505842 -4.341093 6.693266
H 167.588170 -2.481423 5.038036
H 164.829026 -3.196699 3.127059
H 163.077047 -1.762032 1.944087
C 180.156604 0.005387 0.004440
C 180.941312 0.874779 -1.062455
C 180.399779 1.471615 -2.175798
C 181.438827 2.169087 -2.838203
C 182.590011 1.973537 -2.114292
N 182.288253 1.147304 -1.057784
C 184.008362 2.590040 -2.450297
C 184.046037 3.770572 -3.349327
C 184.271024 3.615291 -4.722323
C 184.313719 4.729840 -5.563673
C 184.126143 6.005055 -5.027527
C 184.169152 7.198342 -5.897405
O 184.330448 7.136377 -7.110670
C 183.894409 6.173775 -3.659849
C 183.854823 5.055266 -2.824486
C 185.139201 2.069852 -1.903466
C 186.445419 2.619682 -2.197973
C 187.356918 1.917360 -1.535487
N 185.338373 1.027062 -1.037037
C 186.678790 0.884343 -0.777975
C 187.360883 0.005387 0.004440
C 186.584784 -1.103596 0.839926
C 187.163928 -2.115778 1.583406
C 186.122732 -2.840588 2.207745
C 184.930454 -2.252547 1.830463
N 185.219610 -1.217212 0.971335
C 183.496461 -2.686154 2.338133
C 183.433591 -3.782416 3.332285
C 183.309368 -5.104720 2.885332
C 183.276556 -6.153639 3.802889
C 183.354146 -5.873314 5.172054
C 183.307755 -6.997718 6.126636
O 183.376084 -6.847616 7.340441
C 183.468434 -4.557628 5.629675
C 183.513150 -3.512169 4.705323
C 182.367638 -2.092966 1.873321
C 181.059636 -2.457371 2.376245
C 180.152405 -1.710110 1.761790
C 180.832160 -0.851352 0.814189
N 182.171460 -1.116857 0.936298
H 179.368516 1.418145 -2.480388
H 181.353089 2.751418 -3.740929
H 182.960908 0.759752 -0.406734
H 184.419766 2.617083 -5.122966
H 184.496345 4.596178 -6.624916
H 184.040872 8.172458 -5.394176
H 183.744066 7.157736 -3.229350
H 183.681494 5.167095 -1.754890
H 186.657883 3.451290 -2.844119
H 188.413848 2.103911 -1.573285
H 188.220098 -2.307654 1.687624
H 186.234712 -3.685258 2.875146
H 184.530745 -0.619435 0.518261
H 183.238620 -5.294891 1.814511
H 183.191172 -7.170498 3.433485
H 183.206564 -8.003065 5.684967
H 183.523920 -4.341093 6.693266
H 183.606248 -2.481423 5.038036
H 180.847103 -3.196699 3.127059
H 179.095125 -1.762032 1.944087
C 196.174682 0.005387 0.004440
C 196.959390 0.874779 -1.062455
C 196.417857 1.471615 -2.175798
C 197.456904 2.169087 -2.838203
C 198.608089 1.973537 -2.114292
N 198.306331 1.147304 -1.057784
C 200.026440 2.590040 -2.450297
C 200.064114 3.770572 -3.349327
C 200.289101 3.615291 -4.722323
C 200.331796 4.729840 -5.563673
C 200.144221 6.005055 -5.027527
C 200.187230 7.198342 -5.897405
O 200.348526 7.136377 -7.110670
C 199.912487 6.173775 -3.659849
C 199.872901 5.055266 -2.824486
C 201.157279 2.069852 -1.903466
C 202.463497 2.619682 -2.197973
C 203.374995 1.917360 -1.535487
N 201.356451 1.027062 -1.037037
C 202.696868 0.884343 -0.777975
C 203.378961 0.005387 0.004440
C 202.602862 -1.103596 0.839926
C 203.182006 -2.115778 1.583406
C 202.140810 -2.840588 2.207745
C 200.948532 -2.252547 1.830463
N 201.237688 -1.217212 0.971335
C 199.514539 -2.686154 2.338133
C 199.451669 -3.782416 3.332285
C 199.327446 -5.104720 2.885332
C 199.294634 -6.153639 3.802889
C 199.372224 -5.873314 5.172054
C 199.325833 -6.997718 6.126636
O 199.394162 -6.847616 7.340441
C 199.486512 -4.557628 5.629675
C 199.531228 -3.512169 4.705323
C 198.385716 -2.092966 1.873321
C 197.077714 -2.457371 2.376245
C 196.170483 -1.710110 1.761790
C 196.850238 -0.851352 0.814189
N 198.189538 -1.116857 0.936298
H 195.386594 1.418145 -2.480388
H 197.371167 2.751418 -3.740929
H 198.978985 0.759752 -0.406734
H 200.437844 2.617083 -5.122966
H 200.514422 4.596178 -6.624916
H 200.058950 8.172458 -5.394176
H 199.762144 7.157736 -3.229350
H 199.699572 5.167095 -1.754890
H 202.675961 3.451290 -2.844119
H 204.431926 2.103911 -1.573285
H 204.238176 -2.307654 1.687624
H 202.252790 -3.685258 2.875146
H 200.548823 -0.619435 0.518261
H 199.256698 -5.294891 1.814511
H 199.209250 -7.170498 3.433485
H 199.224642 -8.003065 5.684967
H 199.541998 -4.341093 6.693266
H 199.624325 -2.481423 5.038036
H 196.865181 -3.196699 3.127059
H 195.113202 -1.762032 1.944087
C 212.192760 0.005387 0.004440
C 212.977468 0.874779 -1.062455
C 212.435934 1.471615 -2.175798
C 213.474982 2.169087 -2.838203
C 214.626166 1.973537 -2.114292
N 214.324408 1.147304 -1.057784
C 216.044518 2.590040 -2.450297
C 216.082192 3.770572 -3.349327
C 216.307179 3.615291 -4.722323
C 216.349874 4.729840 -5.563673
C 216.162298 6.005055 -5.027527
C 216.205308 7.198342 -5.897405
O 216.366603 7.136377 -7.110670
C 215.930565 6.173775 -3.659849
C 215.890979 5.055266 -2.824486
C 217.175357 2.069852 -1.903466
C 218.481575 2.619682 -2.197973
C 219.393073 1.917360 -1.535487
N 217.374529 1.027062 -1.037037
C 218.714945 0.884343 -0.777975
C 219.397039 0.005387 0.004440
C 218.620940 -1.103596 0.839926
C 219.200084 -2.115778 1.583406
C 218.158888 -2.840588 2.207745
C 216.966610 -2.252547 1.830463
N 217.255766 -1.217212 0.971335
C 215.532617 -2.686154 2.338133
C 215.469746 -3.782416 3.332285
C 215.345523 -5.104720 2.885332
C 215.312712 -6.153639 3.802889
C 215.390302 -5.873314 5.172054
C 215.343911 -6.997718 6.126636
O 215.412239 -6.847616 7.340441
C 215.504590 -4.557628 5.629675
C 215.549306 -3.512169 4.705323
C 214.403794 -2.092966 1.873321
C 213.095792 -2.457371 2.376245
C 212.188560 -1.710110 1.761790
C 212.868316 -0.851352 0.814189
N 214.207616 -1.116857 0.936298
H 211.404672 1.418145 -2.480388
H 213.389245 2.751418 -3.740929
H 214.997063 0.759752 -0.406734
H 216.455922 2.617083 -5.122966
H 216.532500 4.596178 -6.624916
H 216.077027 8.172458 -5.394176
H 215.780222 7.157736 -3.229350
H 215.717649 5.167095 -1.754890
H 218.694039 3.451290 -2.844119
H 220.450004 2.103911 -1.573285
H 220.256254 -2.307654 1.687624
H 218.270868 -3.685258 2.875146
H 216.566901 -0.619435 0.518261
H 215.274776 -5.294891 1.814511
H 215.227328 -7.170498 3.433485
H 215.242720 -8.003065 5.684967
H 215.560076 -4.341093 6.693266
H 215.642403 -2.481423 5.038036
H 212.883259 -3.196699 3.127059
H 211.131280 -1.762032 1.944087
C 228.210837 0.005387 0.004440
C 228.995546 0.874779 -1.062455
C 228.454012 1.471615 -2.175798
C 229.493060 2.169087 -2.838203
C 230.644244 1.973537 -2.114292
N 230.342486 1.147304 -1.057784
C 232.062596 2.590040 -2.450297
C 232.100270 3.770572 -3.349327
C 232.325257 3.615291 -4.722323
C 232.367952 4.729840 -5.563673
C 232.180376 6.005055 -5.027527
C 232.223386 7.198342 -5.897405
O 232.384681 7.136377 -7.110670
C 231.948643 6.173775 -3.659849
C 231.909057 5.055266 -2.824486
C 233.193435 2.069852 -1.903466
C 234.499653 2.619682 -2.197973
C 235.411151 1.917360 -1.535487
N 233.392606 1.027062 -1.037037
C 234.733023 0.884343 -0.777975
C 235.415117 0.005387 0.004440
C 234.639018 -1.103596 0.839926
C 235.218162 -2.115778 1.583406
C 234.176966 -2.840588 2.207745
C 232.984687 -2.252547 1.830463
N 233.273844 -1.217212 0.971335
C 231.550695 -2.686154 2.338133
C 231.487824 -3.782416 3.332285
C 231.363601 -5.104720 2.885332
C 231.330790 -6.153639 3.802889
C 231.408380 -5.873314 5.172054
C 231.361988 -6.997718 6.126636
O 231.430317 -6.847616 7.340441
C 231.522668 -4.557628 5.629675
C 231.567384 -3.512169 4.705323
C 230.421872 -2.092966 1.873321
C 229.113869 -2.457371 2.376245
C 228.206638 -1.710110 1.761790
C 228.886394 -0.851352 0.814189
N 230.225694 -1.116857 0.936298
H 227.422750 1.418145 -2.480388
H 229.407323 2.751418 -3.740929
H 231.015141 0.759752 -0.406734
H 232.474000 2.617083 -5.122966
H 232.550578 4.596178 -6.624916
H 232.095105 8.172458 -5.394176
H 231.798300 7.157736 -3.229350
H 231.735727 5.167095 -1.754890
H 234.712117 3.451290 -2.844119
H 236.468082 2.103911 -1.573285
H 236.274331 -2.307654 1.687624
H 234.288946 -3.685258 2.875146
H 232.584979 -0.619435 0.518261
H 231.292854 -5.294891 1.814511
H 231.245405 -7.170498 3.433485
H 231.260798 -8.003065 5.684967
H 231.578153 -4.341093 6.693266
H 231.660481 -2.481423 5.038036
H 228.901337 -3.196699 3.127059
H 227.149358 -1.762032 1.944087
