 xtb: 6.5.1 (b24c23e)
          07302207423D

197226  0     0  0            999 V2000
   29.1008    0.1333   -0.3832 Cu  0  0  0  0  0  0  0  0  0  0  0  0
   25.7078    0.1079   -0.0881 C   0  0  0  0  0  0  0  0  0  0  0  0
   26.3341    1.3404    0.0172 C   0  0  0  0  0  0  0  0  0  0  0  0
   25.6521    2.5899    0.1995 C   0  0  0  0  0  0  0  0  0  0  0  0
   26.6032    3.5544    0.2558 C   0  0  0  0  0  0  0  0  0  0  0  0
   27.8768    2.9005    0.1205 C   0  0  0  0  0  0  0  0  0  0  0  0
   27.6817    1.5580   -0.0318 N   0  0  0  0  0  0  0  0  0  0  0  0
   29.1163    3.5442    0.1266 C   0  0  0  0  0  0  0  0  0  0  0  0
   29.1245    5.0128    0.3429 C   0  0  0  0  0  0  0  0  0  0  0  0
   28.6330    5.5569    1.5260 C   0  0  0  0  0  0  0  0  0  0  0  0
   28.6422    6.9366    1.7276 C   0  0  0  0  0  0  0  0  0  0  0  0
   28.1052    7.4552    3.0108 C   0  0  0  0  0  0  0  0  0  0  0  0
   28.1635    8.7908    3.1156 O   0  0  0  0  0  0  0  0  0  0  0  0
   27.6548    6.7640    3.8884 O   0  0  0  0  0  0  0  0  0  0  0  0
   29.1437    7.7844    0.7401 C   0  0  0  0  0  0  0  0  0  0  0  0
   29.6324    7.2452   -0.4395 C   0  0  0  0  0  0  0  0  0  0  0  0
   29.6252    5.8718   -0.6384 C   0  0  0  0  0  0  0  0  0  0  0  0
   30.3492    2.9141   -0.0537 C   0  0  0  0  0  0  0  0  0  0  0  0
   31.6250    3.5681    0.0200 C   0  0  0  0  0  0  0  0  0  0  0  0
   32.5711    2.6212   -0.2039 C   0  0  0  0  0  0  0  0  0  0  0  0
   30.5391    1.5814   -0.3068 N   0  0  0  0  0  0  0  0  0  0  0  0
   31.8817    1.3828   -0.4075 C   0  0  0  0  0  0  0  0  0  0  0  0
   32.5177    0.1585   -0.6786 C   0  0  0  0  0  0  0  0  0  0  0  0
   31.8633   -1.0754   -0.8390 C   0  0  0  0  0  0  0  0  0  0  0  0
   32.5267   -2.3049   -1.1533 C   0  0  0  0  0  0  0  0  0  0  0  0
   31.5705   -3.2663   -1.2108 C   0  0  0  0  0  0  0  0  0  0  0  0
   30.3159   -2.6301   -0.9238 C   0  0  0  0  0  0  0  0  0  0  0  0
   30.5261   -1.2934   -0.7108 N   0  0  0  0  0  0  0  0  0  0  0  0
   29.0799   -3.2783   -0.8894 C   0  0  0  0  0  0  0  0  0  0  0  0
   29.0708   -4.7478   -1.1012 C   0  0  0  0  0  0  0  0  0  0  0  0
   29.7384   -5.5958   -0.2149 C   0  0  0  0  0  0  0  0  0  0  0  0
   29.7273   -6.9704   -0.4073 C   0  0  0  0  0  0  0  0  0  0  0  0
   29.0523   -7.5153   -1.4867 C   0  0  0  0  0  0  0  0  0  0  0  0
   28.3828   -6.6782   -2.3807 C   0  0  0  0  0  0  0  0  0  0  0  0
   27.6716   -7.2999   -3.5255 C   0  0  0  0  0  0  0  0  0  0  0  0
   27.0590   -6.4128   -4.3234 O   0  0  0  0  0  0  0  0  0  0  0  0
   27.6304   -8.4849   -3.7376 O   0  0  0  0  0  0  0  0  0  0  0  0
   28.3922   -5.2984   -2.1863 C   0  0  0  0  0  0  0  0  0  0  0  0
   27.8504   -2.6525   -0.6706 C   0  0  0  0  0  0  0  0  0  0  0  0
   26.5827   -3.3257   -0.5832 C   0  0  0  0  0  0  0  0  0  0  0  0
   25.6411   -2.3753   -0.3631 C   0  0  0  0  0  0  0  0  0  0  0  0
   26.3251   -1.1153   -0.3019 C   0  0  0  0  0  0  0  0  0  0  0  0
   27.6639   -1.3124   -0.4882 N   0  0  0  0  0  0  0  0  0  0  0  0
   24.6269    0.0995    0.0070 H   0  0  0  0  0  0  0  0  0  0  0  0
   24.5813    2.7011    0.2653 H   0  0  0  0  0  0  0  0  0  0  0  0
   26.4616    4.6172    0.3687 H   0  0  0  0  0  0  0  0  0  0  0  0
   28.2516    4.9126    2.3106 H   0  0  0  0  0  0  0  0  0  0  0  0
   27.7969    9.0485    3.9771 H   0  0  0  0  0  0  0  0  0  0  0  0
   29.1487    8.8560    0.8978 H   0  0  0  0  0  0  0  0  0  0  0  0
   30.0211    7.8982   -1.2127 H   0  0  0  0  0  0  0  0  0  0  0  0
   29.9977    5.4576   -1.5687 H   0  0  0  0  0  0  0  0  0  0  0  0
   31.7752    4.6142    0.2325 H   0  0  0  0  0  0  0  0  0  0  0  0
   33.6426    2.7400   -0.2235 H   0  0  0  0  0  0  0  0  0  0  0  0
   33.5878   -2.4080   -1.3143 H   0  0  0  0  0  0  0  0  0  0  0  0
   31.6978   -4.3117   -1.4411 H   0  0  0  0  0  0  0  0  0  0  0  0
   30.2563   -5.1723    0.6384 H   0  0  0  0  0  0  0  0  0  0  0  0
   30.2467   -7.6163    0.2915 H   0  0  0  0  0  0  0  0  0  0  0  0
   29.0335   -8.5867   -1.6518 H   0  0  0  0  0  0  0  0  0  0  0  0
   26.6202   -6.8967   -5.0418 H   0  0  0  0  0  0  0  0  0  0  0  0
   27.8828   -4.6498   -2.8890 H   0  0  0  0  0  0  0  0  0  0  0  0
   26.4400   -4.3909   -0.6687 H   0  0  0  0  0  0  0  0  0  0  0  0
   24.5770   -2.5029   -0.2414 H   0  0  0  0  0  0  0  0  0  0  0  0
   61.1213    0.1718   -0.2772 Cu  0  0  0  0  0  0  0  0  0  0  0  0
   64.5262    0.1087   -0.3233 C   0  0  0  0  0  0  0  0  0  0  0  0
   63.8762   -1.0925   -0.5626 C   0  0  0  0  0  0  0  0  0  0  0  0
   64.5354   -2.3311   -0.8642 C   0  0  0  0  0  0  0  0  0  0  0  0
   63.5659   -3.2637   -1.0325 C   0  0  0  0  0  0  0  0  0  0  0  0
   62.3046   -2.6049   -0.8240 C   0  0  0  0  0  0  0  0  0  0  0  0
   62.5241   -1.2860   -0.5485 N   0  0  0  0  0  0  0  0  0  0  0  0
   61.0523   -3.2174   -0.9146 C   0  0  0  0  0  0  0  0  0  0  0  0
   61.0226   -4.6762   -1.1862 C   0  0  0  0  0  0  0  0  0  0  0  0
   61.6110   -5.5727   -0.2985 C   0  0  0  0  0  0  0  0  0  0  0  0
   61.5833   -6.9432   -0.5540 C   0  0  0  0  0  0  0  0  0  0  0  0
   62.2307   -7.8469    0.4298 C   0  0  0  0  0  0  0  0  0  0  0  0
   62.1614   -9.1433    0.0935 O   0  0  0  0  0  0  0  0  0  0  0  0
   62.7754   -7.4763    1.4382 O   0  0  0  0  0  0  0  0  0  0  0  0
   60.9628   -7.4274   -1.7055 C   0  0  0  0  0  0  0  0  0  0  0  0
   60.3770   -6.5371   -2.5916 C   0  0  0  0  0  0  0  0  0  0  0  0
   60.4053   -5.1732   -2.3368 C   0  0  0  0  0  0  0  0  0  0  0  0
   59.8265   -2.5637   -0.7727 C   0  0  0  0  0  0  0  0  0  0  0  0
   58.5423   -3.2043   -0.8149 C   0  0  0  0  0  0  0  0  0  0  0  0
   57.6080   -2.2348   -0.6444 C   0  0  0  0  0  0  0  0  0  0  0  0
   59.6541   -1.2217   -0.5587 N   0  0  0  0  0  0  0  0  0  0  0  0
   58.3137   -0.9993   -0.4837 C   0  0  0  0  0  0  0  0  0  0  0  0
   57.6925    0.2458   -0.2806 C   0  0  0  0  0  0  0  0  0  0  0  0
   58.3656    1.4590   -0.0529 C   0  0  0  0  0  0  0  0  0  0  0  0
   57.7130    2.7194    0.1374 C   0  0  0  0  0  0  0  0  0  0  0  0
   58.6876    3.6438    0.3306 C   0  0  0  0  0  0  0  0  0  0  0  0
   59.9435    2.9516    0.2633 C   0  0  0  0  0  0  0  0  0  0  0  0
   59.7143    1.6224    0.0249 N   0  0  0  0  0  0  0  0  0  0  0  0
   61.1961    3.5551    0.3883 C   0  0  0  0  0  0  0  0  0  0  0  0
   61.2273    5.0112    0.6787 C   0  0  0  0  0  0  0  0  0  0  0  0
   60.6894    5.5080    1.8678 C   0  0  0  0  0  0  0  0  0  0  0  0
   60.7194    6.8681    2.1435 C   0  0  0  0  0  0  0  0  0  0  0  0
   61.2823    7.7486    1.2348 C   0  0  0  0  0  0  0  0  0  0  0  0
   61.8205    7.2645    0.0415 C   0  0  0  0  0  0  0  0  0  0  0  0
   62.4117    8.2403   -0.9082 C   0  0  0  0  0  0  0  0  0  0  0  0
   62.8930    7.6777   -2.0267 O   0  0  0  0  0  0  0  0  0  0  0  0
   62.4656    9.4281   -0.7164 O   0  0  0  0  0  0  0  0  0  0  0  0
   61.7940    5.8987   -0.2334 C   0  0  0  0  0  0  0  0  0  0  0  0
   62.4216    2.8987    0.2558 C   0  0  0  0  0  0  0  0  0  0  0  0
   63.7115    3.5112    0.4257 C   0  0  0  0  0  0  0  0  0  0  0  0
   64.6411    2.5455    0.2215 C   0  0  0  0  0  0  0  0  0  0  0  0
   63.9285    1.3327   -0.0627 C   0  0  0  0  0  0  0  0  0  0  0  0
   62.5847    1.5747   -0.0343 N   0  0  0  0  0  0  0  0  0  0  0  0
   65.6110    0.0887   -0.3400 H   0  0  0  0  0  0  0  0  0  0  0  0
   65.6039   -2.4548   -0.9428 H   0  0  0  0  0  0  0  0  0  0  0  0
   63.6868   -4.3043   -1.2870 H   0  0  0  0  0  0  0  0  0  0  0  0
   62.0847   -5.2160    0.6095 H   0  0  0  0  0  0  0  0  0  0  0  0
   62.6058   -9.6642    0.7820 H   0  0  0  0  0  0  0  0  0  0  0  0
   60.9421   -8.4924   -1.9025 H   0  0  0  0  0  0  0  0  0  0  0  0
   59.8956   -6.9060   -3.4903 H   0  0  0  0  0  0  0  0  0  0  0  0
   59.9580   -4.4818   -3.0422 H   0  0  0  0  0  0  0  0  0  0  0  0
   58.3794   -4.2621   -0.9428 H   0  0  0  0  0  0  0  0  0  0  0  0
   56.5351   -2.3392   -0.6172 H   0  0  0  0  0  0  0  0  0  0  0  0
   56.6453    2.8687    0.1189 H   0  0  0  0  0  0  0  0  0  0  0  0
   58.5710    4.7036    0.4898 H   0  0  0  0  0  0  0  0  0  0  0  0
   60.2581    4.8188    2.5852 H   0  0  0  0  0  0  0  0  0  0  0  0
   60.3021    7.2387    3.0728 H   0  0  0  0  0  0  0  0  0  0  0  0
   61.3132    8.8139    1.4338 H   0  0  0  0  0  0  0  0  0  0  0  0
   63.2572    8.3785   -2.5915 H   0  0  0  0  0  0  0  0  0  0  0  0
   62.2016    5.5265   -1.1659 H   0  0  0  0  0  0  0  0  0  0  0  0
   63.8768    4.5460    0.6790 H   0  0  0  0  0  0  0  0  0  0  0  0
   65.7154    2.6306    0.2658 H   0  0  0  0  0  0  0  0  0  0  0  0
   37.7070    0.2525   -1.0225 C   0  0  0  0  0  0  0  0  0  0  0  0
   36.4808    0.2212   -0.9616 C   0  0  0  0  0  0  0  0  0  0  0  0
   35.1391    0.1912   -0.8799 C   0  0  0  0  0  0  0  0  0  0  0  0
   33.9188    0.1711   -0.7917 C   0  0  0  0  0  0  0  0  0  0  0  0
   39.0497    0.2916   -1.0753 C   0  0  0  0  0  0  0  0  0  0  0  0
   40.2724    0.3278   -1.1149 C   0  0  0  0  0  0  0  0  0  0  0  0
   53.7238    0.3489   -0.4440 C   0  0  0  0  0  0  0  0  0  0  0  0
   52.4986    0.3774   -0.5257 C   0  0  0  0  0  0  0  0  0  0  0  0
   51.1581    0.4035   -0.6222 C   0  0  0  0  0  0  0  0  0  0  0  0
   49.9381    0.4233   -0.7182 C   0  0  0  0  0  0  0  0  0  0  0  0
   55.0657    0.3142   -0.3707 C   0  0  0  0  0  0  0  0  0  0  0  0
   56.2877    0.2806   -0.3160 C   0  0  0  0  0  0  0  0  0  0  0  0
   45.1093    0.4240   -1.0384 Cu  0  0  0  0  0  0  0  0  0  0  0  0
   41.6768    0.3668   -1.1233 C   0  0  0  0  0  0  0  0  0  0  0  0
   42.3553   -0.7656   -1.6090 C   0  0  0  0  0  0  0  0  0  0  0  0
   41.7097   -1.9086   -2.1814 C   0  0  0  0  0  0  0  0  0  0  0  0
   42.6892   -2.7778   -2.5383 C   0  0  0  0  0  0  0  0  0  0  0  0
   43.9394   -2.1777   -2.1674 C   0  0  0  0  0  0  0  0  0  0  0  0
   43.7031   -0.9467   -1.6154 N   0  0  0  0  0  0  0  0  0  0  0  0
   45.1952   -2.7619   -2.3441 C   0  0  0  0  0  0  0  0  0  0  0  0
   45.2397   -4.1215   -2.9386 C   0  0  0  0  0  0  0  0  0  0  0  0
   44.6266   -5.1981   -2.3046 C   0  0  0  0  0  0  0  0  0  0  0  0
   44.6692   -6.4710   -2.8726 C   0  0  0  0  0  0  0  0  0  0  0  0
   43.9949   -7.5783   -2.1495 C   0  0  0  0  0  0  0  0  0  0  0  0
   44.0846   -8.7606   -2.7762 O   0  0  0  0  0  0  0  0  0  0  0  0
   43.4161   -7.4531   -1.1008 O   0  0  0  0  0  0  0  0  0  0  0  0
   45.3283   -6.6745   -4.0849 C   0  0  0  0  0  0  0  0  0  0  0  0
   45.9410   -5.6042   -4.7175 C   0  0  0  0  0  0  0  0  0  0  0  0
   45.8998   -4.3383   -4.1507 C   0  0  0  0  0  0  0  0  0  0  0  0
   46.4159   -2.1752   -2.0030 C   0  0  0  0  0  0  0  0  0  0  0  0
   47.6928   -2.8250   -2.0896 C   0  0  0  0  0  0  0  0  0  0  0  0
   48.6215   -1.9364   -1.6529 C   0  0  0  0  0  0  0  0  0  0  0  0
   46.5859   -0.9094   -1.5099 N   0  0  0  0  0  0  0  0  0  0  0  0
   47.9188   -0.7405   -1.2969 C   0  0  0  0  0  0  0  0  0  0  0  0
   48.5373    0.4318   -0.8256 C   0  0  0  0  0  0  0  0  0  0  0  0
   47.8641    1.6137   -0.4669 C   0  0  0  0  0  0  0  0  0  0  0  0
   48.5163    2.8260   -0.0721 C   0  0  0  0  0  0  0  0  0  0  0  0
   47.5404    3.7338    0.1849 C   0  0  0  0  0  0  0  0  0  0  0  0
   46.2845    3.0747   -0.0358 C   0  0  0  0  0  0  0  0  0  0  0  0
   46.5155    1.7873   -0.4421 N   0  0  0  0  0  0  0  0  0  0  0  0
   45.0290    3.6606    0.1359 C   0  0  0  0  0  0  0  0  0  0  0  0
   44.9891    5.0655    0.6156 C   0  0  0  0  0  0  0  0  0  0  0  0
   44.4288    6.0653   -0.1826 C   0  0  0  0  0  0  0  0  0  0  0  0
   44.3901    7.3817    0.2557 C   0  0  0  0  0  0  0  0  0  0  0  0
   44.9052    7.7153    1.4971 C   0  0  0  0  0  0  0  0  0  0  0  0
   45.4644    6.7244    2.3055 C   0  0  0  0  0  0  0  0  0  0  0  0
   46.0022    7.1222    3.6308 C   0  0  0  0  0  0  0  0  0  0  0  0
   46.5198    6.1011    4.3289 O   0  0  0  0  0  0  0  0  0  0  0  0
   45.9863    8.2474    4.0601 O   0  0  0  0  0  0  0  0  0  0  0  0
   45.5071    5.4035    1.8637 C   0  0  0  0  0  0  0  0  0  0  0  0
   43.8037    3.0328   -0.0985 C   0  0  0  0  0  0  0  0  0  0  0  0
   42.5190    3.6082    0.1814 C   0  0  0  0  0  0  0  0  0  0  0  0
   41.5863    2.6821   -0.1579 C   0  0  0  0  0  0  0  0  0  0  0  0
   42.2944    1.5376   -0.6472 C   0  0  0  0  0  0  0  0  0  0  0  0
   43.6339    1.7692   -0.5974 N   0  0  0  0  0  0  0  0  0  0  0  0
   40.6438   -2.0174   -2.3024 H   0  0  0  0  0  0  0  0  0  0  0  0
   42.5776   -3.7366   -3.0179 H   0  0  0  0  0  0  0  0  0  0  0  0
   44.1214   -5.0621   -1.3546 H   0  0  0  0  0  0  0  0  0  0  0  0
   43.6209   -9.4272   -2.2438 H   0  0  0  0  0  0  0  0  0  0  0  0
   45.3587   -7.6636   -4.5255 H   0  0  0  0  0  0  0  0  0  0  0  0
   46.4537   -5.7545   -5.6609 H   0  0  0  0  0  0  0  0  0  0  0  0
   46.3706   -3.5029   -4.6569 H   0  0  0  0  0  0  0  0  0  0  0  0
   47.8531   -3.8374   -2.4233 H   0  0  0  0  0  0  0  0  0  0  0  0
   49.6881   -2.0717   -1.5717 H   0  0  0  0  0  0  0  0  0  0  0  0
   49.5846    2.9594   -0.0133 H   0  0  0  0  0  0  0  0  0  0  0  0
   47.6579    4.7617    0.4878 H   0  0  0  0  0  0  0  0  0  0  0  0
   44.0340    5.8070   -1.1589 H   0  0  0  0  0  0  0  0  0  0  0  0
   43.9566    8.1478   -0.3770 H   0  0  0  0  0  0  0  0  0  0  0  0
   44.8823    8.7382    1.8556 H   0  0  0  0  0  0  0  0  0  0  0  0
   46.8458    6.4418    5.1777 H   0  0  0  0  0  0  0  0  0  0  0  0
   45.9300    4.6340    2.4987 H   0  0  0  0  0  0  0  0  0  0  0  0
   42.3559    4.5875    0.6015 H   0  0  0  0  0  0  0  0  0  0  0  0
   40.5133    2.7573   -0.0833 H   0  0  0  0  0  0  0  0  0  0  0  0
  2  3  4  0  0  0  0
  3  4  1  0  0  0  0
  4  5  2  0  0  0  0
  5  6  4  0  0  0  0
  1  7  1  0  0  0  0
  3  7  4  0  0  0  0
  6  7  4  0  0  0  0
  6  8  4  0  0  0  0
  8  9  1  0  0  0  0
  9 10  4  0  0  0  0
 10 11  4  0  0  0  0
 11 12  1  0  0  0  0
 12 13  4  0  0  0  0
 12 14  2  0  0  0  0
 11 15  4  0  0  0  0
 15 16  4  0  0  0  0
  9 17  4  0  0  0  0
 16 17  4  0  0  0  0
  8 18  4  0  0  0  0
 18 19  4  0  0  0  0
 19 20  2  0  0  0  0
  1 21  1  0  0  0  0
 18 21  4  0  0  0  0
 20 22  4  0  0  0  0
 21 22  4  0  0  0  0
 22 23  4  0  0  0  0
 23 24  4  0  0  0  0
 24 25  4  0  0  0  0
 25 26  2  0  0  0  0
 26 27  4  0  0  0  0
  1 28  1  0  0  0  0
 24 28  4  0  0  0  0
 27 28  4  0  0  0  0
 27 29  4  0  0  0  0
 29 30  1  0  0  0  0
 30 31  4  0  0  0  0
 31 32  4  0  0  0  0
 32 33  4  0  0  0  0
 33 34  4  0  0  0  0
 34 35  1  0  0  0  0
 35 36  4  0  0  0  0
 35 37  2  0  0  0  0
 30 38  4  0  0  0  0
 34 38  4  0  0  0  0
 29 39  4  0  0  0  0
 39 40  4  0  0  0  0
 40 41  2  0  0  0  0
  2 42  4  0  0  0  0
 41 42  1  0  0  0  0
  1 43  1  0  0  0  0
 39 43  4  0  0  0  0
 42 43  4  0  0  0  0
  2 44  1  0  0  0  0
  4 45  1  0  0  0  0
  5 46  1  0  0  0  0
 10 47  1  0  0  0  0
 13 48  1  0  0  0  0
 15 49  1  0  0  0  0
 16 50  1  0  0  0  0
 17 51  1  0  0  0  0
 19 52  1  0  0  0  0
 20 53  1  0  0  0  0
 25 54  1  0  0  0  0
 26 55  1  0  0  0  0
 31 56  1  0  0  0  0
 32 57  1  0  0  0  0
 33 58  1  0  0  0  0
 36 59  1  0  0  0  0
 38 60  1  0  0  0  0
 40 61  1  0  0  0  0
 41 62  1  0  0  0  0
 64 65  4  0  0  0  0
 65 66  1  0  0  0  0
 66 67  2  0  0  0  0
 67 68  4  0  0  0  0
 63 69  1  0  0  0  0
 65 69  4  0  0  0  0
 68 69  4  0  0  0  0
 68 70  4  0  0  0  0
 70 71  1  0  0  0  0
 71 72  4  0  0  0  0
 72 73  4  0  0  0  0
 73 74  1  0  0  0  0
 74 75  4  0  0  0  0
 74 76  2  0  0  0  0
 73 77  4  0  0  0  0
 77 78  4  0  0  0  0
 71 79  4  0  0  0  0
 78 79  4  0  0  0  0
 70 80  4  0  0  0  0
 80 81  4  0  0  0  0
 81 82  2  0  0  0  0
 63 83  1  0  0  0  0
 80 83  4  0  0  0  0
 82 84  4  0  0  0  0
 83 84  4  0  0  0  0
 84 85  4  0  0  0  0
 85 86  4  0  0  0  0
 86 87  4  0  0  0  0
 87 88  2  0  0  0  0
 88 89  4  0  0  0  0
 63 90  1  0  0  0  0
 86 90  4  0  0  0  0
 89 90  4  0  0  0  0
 89 91  4  0  0  0  0
 91 92  1  0  0  0  0
 92 93  4  0  0  0  0
 93 94  4  0  0  0  0
 94 95  4  0  0  0  0
 95 96  4  0  0  0  0
 96 97  1  0  0  0  0
 97 98  4  0  0  0  0
 97 99  2  0  0  0  0
 92100  4  0  0  0  0
 96100  4  0  0  0  0
 91101  4  0  0  0  0
101102  4  0  0  0  0
102103  2  0  0  0  0
 64104  4  0  0  0  0
103104  1  0  0  0  0
 63105  1  0  0  0  0
101105  4  0  0  0  0
104105  4  0  0  0  0
 64106  1  0  0  0  0
 66107  1  0  0  0  0
 67108  1  0  0  0  0
 72109  1  0  0  0  0
 75110  1  0  0  0  0
 77111  1  0  0  0  0
 78112  1  0  0  0  0
 79113  1  0  0  0  0
 81114  1  0  0  0  0
 82115  1  0  0  0  0
 87116  1  0  0  0  0
 88117  1  0  0  0  0
 93118  1  0  0  0  0
 94119  1  0  0  0  0
 95120  1  0  0  0  0
 98121  1  0  0  0  0
100122  1  0  0  0  0
102123  1  0  0  0  0
103124  1  0  0  0  0
125126  3  0  0  0  0
126127  4  0  0  0  0
 23128  4  0  0  0  0
127128  3  0  0  0  0
125129  4  0  0  0  0
129130  3  0  0  0  0
131132  3  0  0  0  0
132133  4  0  0  0  0
133134  3  0  0  0  0
131135  4  0  0  0  0
 85136  4  0  0  0  0
135136  3  0  0  0  0
130138  4  0  0  0  0
138139  4  0  0  0  0
139140  4  0  0  0  0
140141  2  0  0  0  0
141142  4  0  0  0  0
137143  1  0  0  0  0
139143  4  0  0  0  0
142143  4  0  0  0  0
142144  4  0  0  0  0
144145  1  0  0  0  0
145146  4  0  0  0  0
146147  4  0  0  0  0
147148  1  0  0  0  0
148149  4  0  0  0  0
148150  2  0  0  0  0
147151  4  0  0  0  0
151152  4  0  0  0  0
145153  4  0  0  0  0
152153  4  0  0  0  0
144154  4  0  0  0  0
154155  4  0  0  0  0
155156  2  0  0  0  0
137157  1  0  0  0  0
154157  4  0  0  0  0
156158  4  0  0  0  0
157158  4  0  0  0  0
134159  4  0  0  0  0
158159  4  0  0  0  0
159160  4  0  0  0  0
160161  4  0  0  0  0
161162  2  0  0  0  0
162163  4  0  0  0  0
137164  1  0  0  0  0
160164  4  0  0  0  0
163164  4  0  0  0  0
163165  4  0  0  0  0
165166  1  0  0  0  0
166167  4  0  0  0  0
167168  4  0  0  0  0
168169  4  0  0  0  0
169170  4  0  0  0  0
170171  1  0  0  0  0
171172  4  0  0  0  0
171173  2  0  0  0  0
166174  4  0  0  0  0
170174  4  0  0  0  0
165175  4  0  0  0  0
175176  4  0  0  0  0
176177  2  0  0  0  0
138178  4  0  0  0  0
177178  4  0  0  0  0
137179  1  0  0  0  0
175179  4  0  0  0  0
178179  4  0  0  0  0
140180  1  0  0  0  0
141181  1  0  0  0  0
146182  1  0  0  0  0
149183  1  0  0  0  0
151184  1  0  0  0  0
152185  1  0  0  0  0
153186  1  0  0  0  0
155187  1  0  0  0  0
156188  1  0  0  0  0
161189  1  0  0  0  0
162190  1  0  0  0  0
167191  1  0  0  0  0
168192  1  0  0  0  0
169193  1  0  0  0  0
172194  1  0  0  0  0
174195  1  0  0  0  0
176196  1  0  0  0  0
177197  1  0  0  0  0
M  END
