124

Ni 14.159841 -0.031702 -0.003236
C 10.821844 0.091453 0.068842
C 11.483819 1.240897 0.229764
C 10.832949 2.538204 0.366939
C 11.772918 3.448862 0.539626
C 13.077995 2.773446 0.533630
N 12.901209 1.371428 0.326545
C 14.269929 3.379300 0.715283
C 14.319139 4.837765 0.967554
C 13.836460 5.366908 2.175261
C 13.899414 6.742754 2.415746
C 14.450249 7.599298 1.454085
C 14.516261 9.015521 1.702798
N 14.569320 10.154096 1.902845
C 14.939357 7.074295 0.251151
C 14.876040 5.698639 0.009358
C 15.561362 2.643576 0.683767
C 16.844703 3.228655 1.091061
C 17.779505 2.318761 0.906251
N 15.704390 1.421730 0.270176
C 17.099721 1.141026 0.381067
C 17.694281 -0.001008 -0.000705
C 16.931068 -1.161099 -0.512132
C 17.461986 -2.153619 -1.214989
C 16.419370 -3.139416 -1.424483
C 15.321462 -2.685522 -0.830968
N 15.554858 -1.412198 -0.227063
C 14.042968 -3.436859 -0.744847
C 14.066227 -4.902398 -0.972389
C 13.382056 -5.466441 -2.061834
C 13.423938 -6.846438 -2.282198
C 14.155592 -7.673313 -1.420592
C 14.199608 -9.093876 -1.648628
N 14.235032 -10.235959 -1.831884
C 14.847324 -7.114364 -0.338675
C 14.805407 -5.734537 -0.116957
C 12.880647 -2.817725 -0.462163
C 11.573358 -3.455492 -0.315184
C 10.711378 -2.480540 -0.099789
C 11.459587 -1.224561 -0.094879
N 12.724613 -1.408882 -0.305132
H 9.738484 0.119279 0.059485
H 9.769598 2.737345 0.329732
H 11.584883 4.507617 0.660886
H 13.414154 4.713129 2.928533
H 13.521330 7.137809 3.351047
H 15.370186 7.727441 -0.498190
H 15.259086 5.303409 -0.923522
H 17.015370 4.224757 1.477844
H 18.833283 2.450758 1.112474
H 18.487755 -2.234017 -1.549022
H 16.528484 -4.081873 -1.945354
H 12.820702 -4.836390 -2.740866
H 12.889214 -7.267672 -3.125055
H 15.419245 -7.744359 0.331998
H 15.345776 -5.313970 0.722357
H 11.331763 -4.508959 -0.366315
H 9.646759 -2.603417 0.050061
Ni 33.076489 0.029505 -0.004894
C 36.414486 -0.089568 0.073746
C 35.752511 -1.228614 0.296658
C 36.403381 -2.516593 0.503863
C 35.463412 -3.416566 0.725597
C 34.158335 -2.742466 0.683045
N 34.335121 -1.353714 0.400364
C 32.966401 -3.337597 0.897231
C 32.917191 -4.780266 1.228087
C 33.399870 -5.243252 2.462670
C 33.336916 -6.604062 2.777285
C 32.786081 -7.511411 1.863405
C 32.720069 -8.912092 2.188423
N 32.667010 -10.038169 2.449814
C 32.296973 -7.052301 0.633813
C 32.360290 -5.691752 0.317902
C 31.674968 -2.604658 0.825932
C 30.391627 -3.166830 1.264302
C 29.456825 -2.268275 1.030505
N 31.531939 -1.406994 0.346801
C 30.136609 -1.120699 0.442332
C 29.542049 -0.001008 -0.000705
C 30.305262 1.129696 -0.574186
C 29.774344 2.082710 -1.329743
C 30.816960 3.055720 -1.592298
C 31.914868 2.634623 -0.975081
N 31.681472 1.395859 -0.303128
C 33.193362 3.389520 -0.929760
C 33.170103 4.840591 -1.236308
C 33.854274 5.344828 -2.354690
C 33.812391 6.710872 -2.649439
C 33.080737 7.583179 -1.833861
C 33.036722 8.989314 -2.138467
N 33.001298 10.119801 -2.383282
C 32.389006 7.083621 -0.723271
C 32.430923 5.717820 -0.427179
C 34.355683 2.786598 -0.613973
C 35.662971 3.431386 -0.501737
C 36.524952 2.469524 -0.233876
C 35.776743 1.215653 -0.160980
N 34.511717 1.388321 -0.380903
H 37.497846 -0.117860 0.065909
H 37.466732 -2.717456 0.477492
H 35.651447 -4.467205 0.903997
H 33.822176 -4.549653 3.179443
H 33.715000 -6.947904 3.732602
H 31.866144 -7.745055 -0.079070
H 31.977244 -5.347604 -0.635007
H 30.220959 -4.140532 1.704444
H 28.403047 -2.388914 1.243572
H 28.748575 2.144907 -1.667638
H 30.707846 3.968597 -2.163426
H 34.415628 4.678942 -2.998618
H 34.347116 7.085859 -3.513865
H 31.817085 7.749000 -0.087687
H 31.890554 5.343307 0.433672
H 35.904567 4.480540 -0.609823
H 37.589570 2.600333 -0.090898
C 19.117802 0.014612 0.010221
C 20.576028 -0.007225 -0.007652
C 21.709956 -0.027979 -0.009143
C 23.071338 -0.040568 -0.011334
C 24.345557 -0.030262 -0.016100
C 25.534019 -0.011464 -0.022256
C 26.886380 0.013321 -0.006388
C 27.986647 0.014612 0.010221
