256

C 52.555764 0.028320 0.092608
C 53.286161 -1.349272 0.063394
C 52.680875 -2.581877 0.153688
C 53.703841 -3.557657 0.030183
C 54.899665 -2.886108 -0.136094
N 54.638721 -1.540582 -0.060892
C 56.321728 -3.536010 -0.395898
C 57.450739 -2.778946 -0.347513
C 58.754687 -3.330646 -0.653886
C 59.654846 -2.359803 -0.553965
N 57.645487 -1.454937 -0.055193
C 58.975416 -1.140583 -0.162185
C 59.641686 0.029114 0.029640
C 58.864362 1.333473 0.491062
C 59.406495 2.407856 1.168436
C 58.380910 3.372170 1.331881
C 57.238201 2.854895 0.760486
C 55.826891 3.571796 0.671309
C 55.790279 5.046478 0.777322
C 56.100039 5.840508 -0.332712
C 56.073586 7.233774 -0.231594
C 55.738222 7.841867 0.985111
C 55.720352 9.323012 1.049554
O 55.393035 9.793968 2.268065
O 55.965731 10.091324 0.136822
C 55.430193 7.050074 2.099082
C 55.457851 5.657631 1.992746
C 54.702509 2.830816 0.493409
C 53.379451 3.420583 0.390226
C 52.495517 2.439000 0.236586
C 53.219132 1.191617 0.229680
N 54.540137 1.479015 0.374000
N 57.529340 1.593205 0.297580
C 56.359854 -4.975314 -0.743432
C 56.093051 -5.388906 -2.053811
C 56.111553 -6.746549 -2.383420
C 56.400742 -7.700665 -1.398790
C 56.432106 -9.152046 -1.699754
O 56.165465 -9.429930 -2.989707
O 56.666761 -10.049979 -0.910567
C 56.669525 -7.289968 -0.086748
C 56.646027 -5.931614 0.238107
H 51.477720 0.033593 -0.013805
H 51.623487 -2.758847 0.276322
H 53.577248 -4.630022 0.036290
H 55.338300 -0.803200 -0.096874
H 58.968410 -4.347339 -0.930824
H 60.707431 -2.482360 -0.733034
H 60.429797 2.496863 1.499755
H 58.468374 4.335863 1.809777
H 56.357704 5.358791 -1.273813
H 56.314001 7.834089 -1.105209
H 55.423819 10.763826 2.147332
H 55.165382 7.498191 3.051737
H 55.217342 5.031596 2.849950
H 53.147694 4.469256 0.428874
H 51.431631 2.548608 0.130600
H 56.845371 0.939669 -0.074704
H 55.872848 -4.638537 -2.810256
H 55.899561 -7.040472 -3.407144
H 56.224651 -10.405660 -3.023882
H 56.898802 -8.017421 0.687843
H 56.852712 -5.601399 1.253591
C 94.799530 0.001591 0.086280
C 94.069133 1.246055 0.677825
C 94.674419 2.307338 1.311185
C 93.651453 3.234917 1.638290
C 92.455629 2.709203 1.188567
N 92.716572 1.472783 0.652507
C 91.033566 3.406605 1.247731
C 89.904554 2.708208 0.951543
C 88.600607 3.338712 0.925051
C 87.700447 2.426120 0.579078
N 89.709807 1.393673 0.619201
C 88.379878 1.160658 0.382622
C 87.713607 0.029114 0.029640
C 88.490932 -1.343674 -0.142738
C 87.948798 -2.607722 -0.018977
C 88.974384 -3.542959 -0.305241
C 90.117092 -2.824400 -0.584059
C 91.528403 -3.425222 -0.985200
C 91.565015 -4.790902 -1.551628
C 91.255255 -5.002953 -2.899847
C 91.281708 -6.293665 -3.434147
C 91.617072 -7.382733 -2.619236
C 91.634942 -8.735553 -3.225720
O 91.962259 -9.702850 -2.347709
O 91.389563 -9.013079 -4.386048
C 91.925101 -7.174447 -1.268501
C 91.897443 -5.882131 -0.739234
C 92.652784 -2.683130 -0.811990
C 93.975843 -3.164033 -1.168648
C 94.859777 -2.217755 -0.865878
C 94.136161 -1.099682 -0.312774
N 92.815156 -1.421281 -0.312630
N 89.825954 -1.489087 -0.432137
C 90.995439 4.848952 1.582413
C 91.262243 5.806164 0.596565
C 91.243741 7.167481 0.910657
C 90.954552 7.578852 2.218559
C 90.923187 9.011113 2.600283
O 91.189829 9.837865 1.571846
O 90.688533 9.459893 3.708297
C 90.685768 6.623482 3.207191
C 90.709267 5.263661 2.888532
H 95.877574 0.044590 -0.011201
H 95.731806 2.410539 1.500148
H 93.778046 4.190715 2.124555
H 92.016993 0.829804 0.289731
H 88.386884 4.371654 1.133353
H 86.647862 2.615956 0.473967
H 86.925497 -2.835831 0.237267
H 88.886920 -4.618629 -0.310153
H 90.997589 -4.150417 -3.525070
H 91.041293 -6.438565 -4.484188
H 91.931475 -10.515629 -2.890471
H 92.189912 -8.002130 -0.617886
H 92.137952 -5.706884 0.307670
H 94.207600 -4.118720 -1.604286
H 95.923663 -2.268209 -1.009757
H 90.509923 -0.738004 -0.471885
H 91.482445 5.474604 -0.416021
H 91.455732 7.889202 0.127381
H 91.130643 10.725346 1.978777
H 90.456491 6.926422 4.225722
H 90.502582 4.513194 3.648170
C 61.830864 0.029114 0.029640
C 63.052781 0.029114 0.029640
C 73.066688 0.029114 0.029640
C 74.288606 0.029114 0.029640
C 84.302513 0.029114 0.029640
C 85.524430 0.029114 0.029640
C 64.469526 -0.030992 -0.031553
C 65.263907 0.762014 -1.149657
C 64.759604 1.225211 -2.347837
C 65.797172 1.945210 -2.993688
C 66.904182 1.893116 -2.172754
N 66.591624 1.107846 -1.091498
C 68.292722 2.612062 -2.419687
C 69.428217 2.110878 -1.866622
C 70.714829 2.759808 -2.014312
C 71.623226 2.041864 -1.362608
N 69.636765 0.999622 -1.098150
C 70.961461 0.898793 -0.766845
C 71.625655 -0.030992 -0.031553
C 70.830978 -1.251074 0.592765
C 71.333780 -2.504672 0.876152
C 70.295800 -3.246970 1.495639
C 69.190352 -2.425321 1.565044
C 67.802738 -2.771347 2.243459
C 67.815249 -3.732234 3.369608
C 67.376880 -5.049825 3.186003
C 67.403525 -5.956511 4.248384
C 67.873417 -5.550494 5.504020
C 67.885494 -6.544085 6.604422
O 68.349663 -6.041876 7.764565
O 67.527665 -7.706572 6.533599
C 68.316259 -4.234643 5.690582
C 68.287311 -3.331340 4.625010
C 66.666723 -2.154535 1.824898
C 65.380819 -2.391021 2.448280
C 64.472263 -1.644095 1.830238
C 65.133463 -0.893199 0.782129
N 66.457487 -1.238347 0.832030
N 69.503686 -1.241975 0.944788
C 68.284330 3.854525 -3.224716
C 67.814319 5.049674 -2.668022
C 67.791420 6.220980 -3.429386
C 68.237458 6.202909 -4.757174
C 68.196636 7.467752 -5.529737
O 68.644598 7.329797 -6.792424
O 67.810410 8.550676 -5.126921
C 68.705288 5.008079 -5.319242
C 68.725751 3.839422 -4.554123
H 63.752413 1.081823 -2.708663
H 65.737071 2.460256 -3.940535
H 67.251024 0.795359 -0.384673
H 70.910925 3.671987 -2.548624
H 72.667742 2.286181 -1.296845
H 72.340086 -2.842486 0.680176
H 70.354417 -4.258879 1.867198
H 67.011734 -5.354702 2.207062
H 67.055966 -6.973458 4.087807
H 68.294081 -6.802943 8.376125
H 68.685778 -3.896766 6.653952
H 68.630057 -2.307163 4.760220
H 65.185004 -3.048792 3.275924
H 63.428018 -1.612841 2.082481
H 68.844945 -0.496656 0.738377
H 67.468721 5.054795 -1.636021
H 67.424602 7.139452 -2.979044
H 68.556055 8.232080 -7.159263
H 69.056701 4.969317 -6.345706
H 69.088894 2.905803 -4.979956
C 75.705351 -0.030992 -0.031553
C 76.499731 0.762014 -1.149657
C 75.995428 1.225211 -2.347837
C 77.032996 1.945210 -2.993688
C 78.140006 1.893116 -2.172754
N 77.827448 1.107846 -1.091498
C 79.528547 2.612062 -2.419687
C 80.664042 2.110878 -1.866622
C 81.950654 2.759808 -2.014312
C 82.859051 2.041864 -1.362608
N 80.872589 0.999622 -1.098150
C 82.197285 0.898793 -0.766845
C 82.861479 -0.030992 -0.031553
C 82.066802 -1.251074 0.592765
C 82.569604 -2.504672 0.876152
C 81.531624 -3.246970 1.495639
C 80.426176 -2.425321 1.565044
C 79.038562 -2.771347 2.243459
C 79.051073 -3.732234 3.369608
C 78.612705 -5.049825 3.186003
C 78.639350 -5.956511 4.248384
C 79.109242 -5.550494 5.504020
C 79.121318 -6.544085 6.604422
O 79.585487 -6.041876 7.764565
O 78.763489 -7.706572 6.533599
C 79.552083 -4.234643 5.690582
C 79.523135 -3.331340 4.625010
C 77.902547 -2.154535 1.824898
C 76.616644 -2.391021 2.448280
C 75.708088 -1.644095 1.830238
C 76.369287 -0.893199 0.782129
N 77.693312 -1.238347 0.832030
N 80.739510 -1.241975 0.944788
C 79.520154 3.854525 -3.224716
C 79.050143 5.049674 -2.668022
C 79.027245 6.220980 -3.429386
C 79.473283 6.202909 -4.757174
C 79.432461 7.467752 -5.529737
O 79.880422 7.329797 -6.792424
O 79.046234 8.550676 -5.126921
C 79.941112 5.008079 -5.319242
C 79.961576 3.839422 -4.554123
H 74.988237 1.081823 -2.708663
H 76.972896 2.460256 -3.940535
H 78.486849 0.795359 -0.384673
H 82.146749 3.671987 -2.548624
H 83.903567 2.286181 -1.296845
H 83.575911 -2.842486 0.680176
H 81.590242 -4.258879 1.867198
H 78.247559 -5.354702 2.207062
H 78.291790 -6.973458 4.087807
H 79.529906 -6.802943 8.376125
H 79.921602 -3.896766 6.653952
H 79.865881 -2.307163 4.760220
H 76.420829 -3.048792 3.275924
H 74.663843 -1.612841 2.082481
H 80.080770 -0.496656 0.738377
H 78.704546 5.054795 -1.636021
H 78.660427 7.139452 -2.979044
H 79.791879 8.232080 -7.159263
H 80.292525 4.969317 -6.345706
H 80.324719 2.905803 -4.979956
