666

C 155.454232 0.115996 -0.013684
C 156.178633 0.027384 1.363419
C 155.558740 -0.005479 2.592409
C 156.579421 -0.123180 3.569801
C 157.790792 -0.156848 2.903793
N 157.533993 -0.042772 1.560909
C 159.222777 -0.334738 3.561278
C 159.275992 -0.606314 5.017215
C 159.474437 0.431909 5.925335
C 159.509265 0.174187 7.303783
C 159.332948 -1.120217 7.831474
N 159.372276 -1.368041 9.216601
C 159.075430 -0.250140 10.108809
C 158.959061 -2.683702 9.694754
C 159.159917 -2.150803 6.886602
C 159.124052 -1.902003 5.506008
C 160.350516 -0.265500 2.802784
C 161.662044 -0.492310 3.373904
C 162.564357 -0.389960 2.405851
N 160.542472 -0.013363 1.468742
C 161.879402 -0.073448 1.167853
C 162.552181 0.106142 -0.000354
C 161.779775 0.497658 -1.332909
C 162.345876 1.054550 -2.464636
C 161.320188 1.202758 -3.429244
C 160.150428 0.747095 -2.856791
N 160.432319 0.357658 -1.567875
C 158.726593 0.702445 -3.558381
C 158.677895 0.850995 -5.029774
C 158.502237 2.105737 -5.610808
C 158.495274 2.247411 -7.005572
C 158.674670 1.150989 -7.872047
N 158.674923 1.316875 -9.271649
C 158.935840 0.146638 -10.104488
C 159.229271 2.575335 -9.770368
C 158.811516 -0.107707 -7.255834
C 158.823850 -0.257716 -5.860853
C 157.604350 0.535468 -2.811455
C 156.275797 0.492432 -3.397211
C 155.392109 0.335919 -2.416310
C 156.120482 0.268555 -1.173115
N 157.445099 0.382640 -1.461775
H 154.372768 0.044650 -0.022348
H 154.494210 0.039697 2.765270
H 156.445788 -0.187956 4.639883
H 158.238752 -0.011867 0.828325
H 159.610135 1.443724 5.549964
H 159.686974 1.028062 7.948080
H 158.093228 0.184723 9.890354
H 159.065378 -0.574340 11.156048
H 159.846008 0.525449 10.045814
H 157.911800 -2.886099 9.444025
H 159.597794 -3.475406 9.288417
H 159.056876 -2.752197 10.784232
H 159.044150 -3.185363 7.189377
H 158.983276 -2.719682 4.802666
H 161.879694 -0.719708 4.402497
H 163.622344 -0.516831 2.544848
H 163.385143 1.316213 -2.592678
H 161.424128 1.595280 -4.429918
H 159.739274 0.055056 -0.887850
H 158.368689 2.973431 -4.968327
H 158.331221 3.247842 -7.390963
H 158.832155 0.398391 -11.166341
H 159.951907 -0.233234 -9.949978
H 158.209578 -0.650829 -9.912094
H 158.584347 3.424157 -9.521977
H 159.300636 2.565317 -10.863744
H 160.237277 2.751189 -9.377816
H 158.929539 -1.015767 -7.836096
H 158.948746 -1.241951 -5.413776
H 156.040980 0.574670 -4.443600
H 154.324590 0.269185 -2.524316
C 246.704896 0.112598 0.014915
C 245.980495 0.349132 -1.344614
C 246.600388 0.605157 -2.547090
C 245.579707 0.719753 -3.524850
C 244.368336 0.530965 -2.885273
N 244.625135 0.327205 -1.553044
C 242.936351 0.512087 -3.566136
C 242.883136 0.589223 -5.045175
C 242.684691 1.811330 -5.684740
C 242.649863 1.883777 -7.085201
C 242.826180 0.749056 -7.901502
N 242.786852 0.832690 -9.306137
C 243.083698 2.128528 -9.911563
C 243.200067 -0.334304 -10.079260
C 242.999211 -0.474239 -7.224419
C 243.035076 -0.555862 -5.823962
C 241.808612 0.401669 -2.812535
C 240.497084 0.314997 -3.420901
C 239.594771 0.187667 -2.455815
N 241.616656 0.334198 -1.456552
C 240.279726 0.205283 -1.178119
C 239.606947 0.106142 -0.000354
C 240.379353 0.174518 1.386842
C 239.813252 0.450723 2.617552
C 240.838940 0.368781 3.590033
C 242.008700 0.059939 2.926747
N 241.726809 -0.016641 1.582462
C 243.432535 -0.147862 3.598342
C 243.481233 -0.348221 5.063580
C 243.656891 0.735444 5.922446
C 243.663854 0.546356 7.311577
C 243.484458 -0.722571 7.897019
N 243.484205 -0.889255 9.296526
C 243.223288 -2.222061 9.831973
C 242.929857 0.217312 10.076240
C 243.347612 -1.801836 7.003027
C 243.335278 -1.620802 5.611732
C 244.554778 -0.135174 2.833086
C 245.883331 -0.314264 3.392450
C 246.767019 -0.236577 2.402183
C 246.038646 -0.010765 1.177814
N 244.714029 0.032507 1.485170
H 247.786360 0.041208 0.006619
H 247.664918 0.689580 -2.704552
H 245.713340 0.907519 -4.580320
H 243.920376 0.185591 -0.833614
H 242.548993 2.707020 -5.082734
H 242.472154 2.864849 -7.511484
H 244.065900 2.500097 -9.597294
H 243.093750 2.058739 -11.005612
H 242.313120 2.867764 -9.668588
H 244.247328 -0.589817 -9.882936
H 242.561334 -1.199179 -9.869745
H 243.102252 -0.145609 -11.154457
H 243.114978 -1.409051 -7.761180
H 243.175852 -1.515582 -5.331798
H 240.279434 0.334947 -4.474141
H 238.536784 0.096897 -2.620671
H 238.773985 0.675099 2.803341
H 240.735000 0.515900 4.654823
H 242.419854 -0.151477 0.850464
H 243.790439 1.729525 5.501167
H 243.827907 1.428631 7.920656
H 243.326973 -2.226127 10.923254
H 242.207221 -2.555153 9.592753
H 243.949550 -2.952245 9.458074
H 243.574781 1.100705 10.033657
H 242.858492 -0.048624 11.136829
H 241.921851 0.480252 9.735821
H 243.229589 -2.820582 7.354361
H 243.210381 -2.472878 4.946479
H 246.118148 -0.479502 4.428977
H 247.834537 -0.326761 2.491546
C 164.242563 0.106142 -0.000354
C 165.464481 0.106142 -0.000354
C 174.592861 0.106142 -0.000354
C 175.814778 0.106142 -0.000354
C 184.943158 0.106142 -0.000354
C 186.165076 0.106142 -0.000354
C 195.293456 0.106142 -0.000354
C 196.515374 0.106142 -0.000354
C 205.643754 0.106142 -0.000354
C 206.865672 0.106142 -0.000354
C 215.994052 0.106142 -0.000354
C 217.215969 0.106142 -0.000354
C 226.344350 0.106142 -0.000354
C 227.566267 0.106142 -0.000354
C 236.694647 0.106142 -0.000354
C 237.916565 0.106142 -0.000354
C 166.455793 -0.034117 0.000114
C 167.249580 -0.384088 1.326474
C 166.741828 -0.999159 2.453179
C 167.779045 -1.035134 3.420012
C 168.889699 -0.447814 2.851146
N 168.578944 -0.124994 1.553886
C 170.279839 -0.180735 3.562718
C 170.269325 0.000435 5.032383
C 169.819375 1.194242 5.592949
C 169.781261 1.358329 6.985727
C 170.171194 0.334598 7.868673
N 170.133143 0.478906 9.271010
C 169.657881 1.746081 9.817192
C 169.716436 -0.711569 10.012639
C 170.646847 -0.850194 7.274239
C 170.689530 -1.021207 5.883195
C 171.414459 -0.078988 2.821568
C 172.701068 0.221475 3.414815
C 173.608984 0.264478 2.445732
N 171.622576 -0.199564 1.475348
C 172.946842 -0.007592 1.185605
C 173.610432 -0.034117 0.000114
C 172.816633 -0.333225 -1.338649
C 173.324039 -0.907069 -2.487295
C 172.287127 -0.905901 -3.455118
C 171.176959 -0.338733 -2.864730
N 171.487602 -0.065333 -1.556167
C 169.787192 -0.043795 -3.565973
C 169.798165 0.189915 -5.028187
C 170.257530 1.398264 -5.547150
C 170.294963 1.609839 -6.933844
C 169.894757 0.622666 -7.854588
N 169.931840 0.827527 -9.247838
C 170.110281 -0.359929 -10.081330
C 170.558794 2.046374 -9.750367
C 169.410958 -0.577873 -7.298904
C 169.369821 -0.797566 -5.914150
C 168.652453 0.030507 -2.821333
C 167.365645 0.353282 -3.402413
C 166.457625 0.358880 -2.432253
C 167.119801 0.038790 -1.183525
N 168.444486 -0.140835 -1.480449
H 165.732511 -1.360901 2.577067
H 167.717858 -1.424826 4.425092
H 169.240342 0.215441 0.861690
H 169.496052 1.999527 4.936730
H 169.417637 2.313750 7.346978
H 169.777059 1.761812 10.907103
H 170.245582 2.589691 9.437346
H 168.596111 1.904552 9.595584
H 170.463509 -1.509106 9.951709
H 168.750914 -1.086828 9.653457
H 169.607085 -0.486393 11.080307
H 171.019279 -1.669412 7.879713
H 171.059470 -1.950010 5.453971
H 172.895173 0.392879 4.458817
H 174.653125 0.471618 2.591993
H 174.333117 -1.265325 -2.623885
H 172.347812 -1.257820 -4.474137
H 170.827057 0.251000 -0.851273
H 170.587779 2.178095 -4.864039
H 170.662633 2.576160 -7.260394
H 171.003553 -0.923305 -9.787926
H 169.231953 -1.012826 -10.040973
H 170.229550 -0.085424 -11.136137
H 171.625852 2.077117 -9.502880
H 170.470135 2.106923 -10.841265
H 170.061743 2.941384 -9.359652
H 169.037648 -1.378922 -7.927021
H 168.995839 -1.739091 -5.517597
H 167.170979 0.564290 -4.438860
H 165.413256 0.571391 -2.570174
C 176.806091 -0.034117 0.000114
C 177.599878 -0.384088 1.326474
C 177.092126 -0.999159 2.453179
C 178.129343 -1.035134 3.420012
C 179.239996 -0.447814 2.851146
N 178.929242 -0.124994 1.553886
C 180.630137 -0.180735 3.562718
C 180.619623 0.000435 5.032383
C 180.169673 1.194242 5.592949
C 180.131559 1.358329 6.985727
C 180.521492 0.334598 7.868673
N 180.483441 0.478906 9.271010
C 180.008179 1.746081 9.817192
C 180.066734 -0.711569 10.012639
C 180.997145 -0.850194 7.274239
C 181.039828 -1.021207 5.883195
C 181.764756 -0.078988 2.821568
C 183.051366 0.221475 3.414815
C 183.959281 0.264478 2.445732
N 181.972874 -0.199564 1.475348
C 183.297139 -0.007592 1.185605
C 183.960729 -0.034117 0.000114
C 183.166931 -0.333225 -1.338649
C 183.674337 -0.907069 -2.487295
C 182.637425 -0.905901 -3.455118
C 181.527257 -0.338733 -2.864730
N 181.837900 -0.065333 -1.556167
C 180.137489 -0.043795 -3.565973
C 180.148463 0.189915 -5.028187
C 180.607828 1.398264 -5.547150
C 180.645261 1.609839 -6.933844
C 180.245054 0.622666 -7.854588
N 180.282137 0.827527 -9.247838
C 180.460579 -0.359929 -10.081330
C 180.909091 2.046374 -9.750367
C 179.761255 -0.577873 -7.298904
C 179.720119 -0.797566 -5.914150
C 179.002751 0.030507 -2.821333
C 177.715943 0.353282 -3.402413
C 176.807923 0.358880 -2.432253
C 177.470098 0.038790 -1.183525
N 178.794784 -0.140835 -1.480449
H 176.082809 -1.360901 2.577067
H 178.068155 -1.424826 4.425092
H 179.590640 0.215441 0.861690
H 179.846350 1.999527 4.936730
H 179.767935 2.313750 7.346978
H 180.127357 1.761812 10.907103
H 180.595880 2.589691 9.437346
H 178.946409 1.904552 9.595584
H 180.813807 -1.509106 9.951709
H 179.101212 -1.086828 9.653457
H 179.957383 -0.486393 11.080307
H 181.369577 -1.669412 7.879713
H 181.409768 -1.950010 5.453971
H 183.245471 0.392879 4.458817
H 185.003423 0.471618 2.591993
H 184.683415 -1.265325 -2.623885
H 182.698110 -1.257820 -4.474137
H 181.177355 0.251000 -0.851273
H 180.938077 2.178095 -4.864039
H 181.012931 2.576160 -7.260394
H 181.353851 -0.923305 -9.787926
H 179.582251 -1.012826 -10.040973
H 180.579847 -0.085424 -11.136137
H 181.976150 2.077117 -9.502880
H 180.820433 2.106923 -10.841265
H 180.412041 2.941384 -9.359652
H 179.387945 -1.378922 -7.927021
H 179.346137 -1.739091 -5.517597
H 177.521277 0.564290 -4.438860
H 175.763553 0.571391 -2.570174
C 187.156389 -0.034117 0.000114
C 187.950175 -0.384088 1.326474
C 187.442424 -0.999159 2.453179
C 188.479640 -1.035134 3.420012
C 189.590294 -0.447814 2.851146
N 189.279540 -0.124994 1.553886
C 190.980435 -0.180735 3.562718
C 190.969921 0.000435 5.032383
C 190.519970 1.194242 5.592949
C 190.481857 1.358329 6.985727
C 190.871790 0.334598 7.868673
N 190.833739 0.478906 9.271010
C 190.358477 1.746081 9.817192
C 190.417032 -0.711569 10.012639
C 191.347443 -0.850194 7.274239
C 191.390126 -1.021207 5.883195
C 192.115054 -0.078988 2.821568
C 193.401664 0.221475 3.414815
C 194.309579 0.264478 2.445732
N 192.323171 -0.199564 1.475348
C 193.647437 -0.007592 1.185605
C 194.311027 -0.034117 0.000114
C 193.517229 -0.333225 -1.338649
C 194.024635 -0.907069 -2.487295
C 192.987723 -0.905901 -3.455118
C 191.877554 -0.338733 -2.864730
N 192.188198 -0.065333 -1.556167
C 190.487787 -0.043795 -3.565973
C 190.498760 0.189915 -5.028187
C 190.958126 1.398264 -5.547150
C 190.995559 1.609839 -6.933844
C 190.595352 0.622666 -7.854588
N 190.632435 0.827527 -9.247838
C 190.810877 -0.359929 -10.081330
C 191.259389 2.046374 -9.750367
C 190.111553 -0.577873 -7.298904
C 190.070416 -0.797566 -5.914150
C 189.353049 0.030507 -2.821333
C 188.066241 0.353282 -3.402413
C 187.158220 0.358880 -2.432253
C 187.820396 0.038790 -1.183525
N 189.145082 -0.140835 -1.480449
H 186.433106 -1.360901 2.577067
H 188.418453 -1.424826 4.425092
H 189.940937 0.215441 0.861690
H 190.196647 1.999527 4.936730
H 190.118233 2.313750 7.346978
H 190.477655 1.761812 10.907103
H 190.946177 2.589691 9.437346
H 189.296707 1.904552 9.595584
H 191.164105 -1.509106 9.951709
H 189.451510 -1.086828 9.653457
H 190.307680 -0.486393 11.080307
H 191.719875 -1.669412 7.879713
H 191.760066 -1.950010 5.453971
H 193.595769 0.392879 4.458817
H 195.353721 0.471618 2.591993
H 195.033712 -1.265325 -2.623885
H 193.048407 -1.257820 -4.474137
H 191.527653 0.251000 -0.851273
H 191.288374 2.178095 -4.864039
H 191.363228 2.576160 -7.260394
H 191.704149 -0.923305 -9.787926
H 189.932549 -1.012826 -10.040973
H 190.930145 -0.085424 -11.136137
H 192.326447 2.077117 -9.502880
H 191.170731 2.106923 -10.841265
H 190.762339 2.941384 -9.359652
H 189.738243 -1.378922 -7.927021
H 189.696434 -1.739091 -5.517597
H 187.871575 0.564290 -4.438860
H 186.113851 0.571391 -2.570174
C 197.506687 -0.034117 0.000114
C 198.300473 -0.384088 1.326474
C 197.792721 -0.999159 2.453179
C 198.829938 -1.035134 3.420012
C 199.940592 -0.447814 2.851146
N 199.629838 -0.124994 1.553886
C 201.330733 -0.180735 3.562718
C 201.320218 0.000435 5.032383
C 200.870268 1.194242 5.592949
C 200.832154 1.358329 6.985727
C 201.222087 0.334598 7.868673
N 201.184036 0.478906 9.271010
C 200.708774 1.746081 9.817192
C 200.767330 -0.711569 10.012639
C 201.697741 -0.850194 7.274239
C 201.740423 -1.021207 5.883195
C 202.465352 -0.078988 2.821568
C 203.751962 0.221475 3.414815
C 204.659877 0.264478 2.445732
N 202.673469 -0.199564 1.475348
C 203.997735 -0.007592 1.185605
C 204.661325 -0.034117 0.000114
C 203.867527 -0.333225 -1.338649
C 204.374933 -0.907069 -2.487295
C 203.338021 -0.905901 -3.455118
C 202.227852 -0.338733 -2.864730
N 202.538495 -0.065333 -1.556167
C 200.838085 -0.043795 -3.565973
C 200.849058 0.189915 -5.028187
C 201.308424 1.398264 -5.547150
C 201.345857 1.609839 -6.933844
C 200.945650 0.622666 -7.854588
N 200.982733 0.827527 -9.247838
C 201.161174 -0.359929 -10.081330
C 201.609687 2.046374 -9.750367
C 200.461851 -0.577873 -7.298904
C 200.420714 -0.797566 -5.914150
C 199.703347 0.030507 -2.821333
C 198.416539 0.353282 -3.402413
C 197.508518 0.358880 -2.432253
C 198.170694 0.038790 -1.183525
N 199.495380 -0.140835 -1.480449
H 196.783404 -1.360901 2.577067
H 198.768751 -1.424826 4.425092
H 200.291235 0.215441 0.861690
H 200.546945 1.999527 4.936730
H 200.468531 2.313750 7.346978
H 200.827953 1.761812 10.907103
H 201.296475 2.589691 9.437346
H 199.647005 1.904552 9.595584
H 201.514403 -1.509106 9.951709
H 199.801808 -1.086828 9.653457
H 200.657978 -0.486393 11.080307
H 202.070173 -1.669412 7.879713
H 202.110364 -1.950010 5.453971
H 203.946067 0.392879 4.458817
H 205.704019 0.471618 2.591993
H 205.384010 -1.265325 -2.623885
H 203.398705 -1.257820 -4.474137
H 201.877950 0.251000 -0.851273
H 201.638672 2.178095 -4.864039
H 201.713526 2.576160 -7.260394
H 202.054447 -0.923305 -9.787926
H 200.282847 -1.012826 -10.040973
H 201.280443 -0.085424 -11.136137
H 202.676745 2.077117 -9.502880
H 201.521029 2.106923 -10.841265
H 201.112637 2.941384 -9.359652
H 200.088541 -1.378922 -7.927021
H 200.046732 -1.739091 -5.517597
H 198.221873 0.564290 -4.438860
H 196.464149 0.571391 -2.570174
C 207.856985 -0.034117 0.000114
C 208.650771 -0.384088 1.326474
C 208.143019 -0.999159 2.453179
C 209.180236 -1.035134 3.420012
C 210.290890 -0.447814 2.851146
N 209.980136 -0.124994 1.553886
C 211.681030 -0.180735 3.562718
C 211.670516 0.000435 5.032383
C 211.220566 1.194242 5.592949
C 211.182452 1.358329 6.985727
C 211.572385 0.334598 7.868673
N 211.534334 0.478906 9.271010
C 211.059072 1.746081 9.817192
C 211.117628 -0.711569 10.012639
C 212.048039 -0.850194 7.274239
C 212.090721 -1.021207 5.883195
C 212.815650 -0.078988 2.821568
C 214.102259 0.221475 3.414815
C 215.010175 0.264478 2.445732
N 213.023767 -0.199564 1.475348
C 214.348033 -0.007592 1.185605
C 215.011623 -0.034117 0.000114
C 214.217824 -0.333225 -1.338649
C 214.725230 -0.907069 -2.487295
C 213.688318 -0.905901 -3.455118
C 212.578150 -0.338733 -2.864730
N 212.888793 -0.065333 -1.556167
C 211.188383 -0.043795 -3.565973
C 211.199356 0.189915 -5.028187
C 211.658722 1.398264 -5.547150
C 211.696154 1.609839 -6.933844
C 211.295948 0.622666 -7.854588
N 211.333031 0.827527 -9.247838
C 211.511472 -0.359929 -10.081330
C 211.959985 2.046374 -9.750367
C 210.812149 -0.577873 -7.298904
C 210.771012 -0.797566 -5.914150
C 210.053645 0.030507 -2.821333
C 208.766836 0.353282 -3.402413
C 207.858816 0.358880 -2.432253
C 208.520992 0.038790 -1.183525
N 209.845678 -0.140835 -1.480449
H 207.133702 -1.360901 2.577067
H 209.119049 -1.424826 4.425092
H 210.641533 0.215441 0.861690
H 210.897243 1.999527 4.936730
H 210.818828 2.313750 7.346978
H 211.178251 1.761812 10.907103
H 211.646773 2.589691 9.437346
H 209.997303 1.904552 9.595584
H 211.864701 -1.509106 9.951709
H 210.152105 -1.086828 9.653457
H 211.008276 -0.486393 11.080307
H 212.420471 -1.669412 7.879713
H 212.460662 -1.950010 5.453971
H 214.296364 0.392879 4.458817
H 216.054317 0.471618 2.591993
H 215.734308 -1.265325 -2.623885
H 213.749003 -1.257820 -4.474137
H 212.228248 0.251000 -0.851273
H 211.988970 2.178095 -4.864039
H 212.063824 2.576160 -7.260394
H 212.404744 -0.923305 -9.787926
H 210.633144 -1.012826 -10.040973
H 211.630741 -0.085424 -11.136137
H 213.027043 2.077117 -9.502880
H 211.871326 2.106923 -10.841265
H 211.462934 2.941384 -9.359652
H 210.438839 -1.378922 -7.927021
H 210.397030 -1.739091 -5.517597
H 208.572170 0.564290 -4.438860
H 206.814447 0.571391 -2.570174
C 218.207282 -0.034117 0.000114
C 219.001069 -0.384088 1.326474
C 218.493317 -0.999159 2.453179
C 219.530534 -1.035134 3.420012
C 220.641188 -0.447814 2.851146
N 220.330433 -0.124994 1.553886
C 222.031328 -0.180735 3.562718
C 222.020814 0.000435 5.032383
C 221.570864 1.194242 5.592949
C 221.532750 1.358329 6.985727
C 221.922683 0.334598 7.868673
N 221.884632 0.478906 9.271010
C 221.409370 1.746081 9.817192
C 221.467925 -0.711569 10.012639
C 222.398336 -0.850194 7.274239
C 222.441019 -1.021207 5.883195
C 223.165948 -0.078988 2.821568
C 224.452557 0.221475 3.414815
C 225.360473 0.264478 2.445732
N 223.374065 -0.199564 1.475348
C 224.698331 -0.007592 1.185605
C 225.361921 -0.034117 0.000114
C 224.568122 -0.333225 -1.338649
C 225.075528 -0.907069 -2.487295
C 224.038616 -0.905901 -3.455118
C 222.928448 -0.338733 -2.864730
N 223.239091 -0.065333 -1.556167
C 221.538681 -0.043795 -3.565973
C 221.549654 0.189915 -5.028187
C 222.009019 1.398264 -5.547150
C 222.046452 1.609839 -6.933844
C 221.646245 0.622666 -7.854588
N 221.683329 0.827527 -9.247838
C 221.861770 -0.359929 -10.081330
C 222.310282 2.046374 -9.750367
C 221.162446 -0.577873 -7.298904
C 221.121310 -0.797566 -5.914150
C 220.403942 0.030507 -2.821333
C 219.117134 0.353282 -3.402413
C 218.209114 0.358880 -2.432253
C 218.871290 0.038790 -1.183525
N 220.195975 -0.140835 -1.480449
H 217.484000 -1.360901 2.577067
H 219.469346 -1.424826 4.425092
H 220.991831 0.215441 0.861690
H 221.247541 1.999527 4.936730
H 221.169126 2.313750 7.346978
H 221.528548 1.761812 10.907103
H 221.997071 2.589691 9.437346
H 220.347600 1.904552 9.595584
H 222.214998 -1.509106 9.951709
H 220.502403 -1.086828 9.653457
H 221.358574 -0.486393 11.080307
H 222.770768 -1.669412 7.879713
H 222.810959 -1.950010 5.453971
H 224.646662 0.392879 4.458817
H 226.404614 0.471618 2.591993
H 226.084606 -1.265325 -2.623885
H 224.099301 -1.257820 -4.474137
H 222.578546 0.251000 -0.851273
H 222.339268 2.178095 -4.864039
H 222.414122 2.576160 -7.260394
H 222.755042 -0.923305 -9.787926
H 220.983442 -1.012826 -10.040973
H 221.981039 -0.085424 -11.136137
H 223.377341 2.077117 -9.502880
H 222.221624 2.106923 -10.841265
H 221.813232 2.941384 -9.359652
H 220.789137 -1.378922 -7.927021
H 220.747328 -1.739091 -5.517597
H 218.922468 0.564290 -4.438860
H 217.164745 0.571391 -2.570174
C 228.557580 -0.034117 0.000114
C 229.351367 -0.384088 1.326474
C 228.843615 -0.999159 2.453179
C 229.880831 -1.035134 3.420012
C 230.991485 -0.447814 2.851146
N 230.680731 -0.124994 1.553886
C 232.381626 -0.180735 3.562718
C 232.371112 0.000435 5.032383
C 231.921162 1.194242 5.592949
C 231.883048 1.358329 6.985727
C 232.272981 0.334598 7.868673
N 232.234930 0.478906 9.271010
C 231.759668 1.746081 9.817192
C 231.818223 -0.711569 10.012639
C 232.748634 -0.850194 7.274239
C 232.791317 -1.021207 5.883195
C 233.516245 -0.078988 2.821568
C 234.802855 0.221475 3.414815
C 235.710770 0.264478 2.445732
N 233.724363 -0.199564 1.475348
C 235.048628 -0.007592 1.185605
C 235.712218 -0.034117 0.000114
C 234.918420 -0.333225 -1.338649
C 235.425826 -0.907069 -2.487295
C 234.388914 -0.905901 -3.455118
C 233.278746 -0.338733 -2.864730
N 233.589389 -0.065333 -1.556167
C 231.888978 -0.043795 -3.565973
C 231.899952 0.189915 -5.028187
C 232.359317 1.398264 -5.547150
C 232.396750 1.609839 -6.933844
C 231.996543 0.622666 -7.854588
N 232.033626 0.827527 -9.247838
C 232.212068 -0.359929 -10.081330
C 232.660580 2.046374 -9.750367
C 231.512744 -0.577873 -7.298904
C 231.471608 -0.797566 -5.914150
C 230.754240 0.030507 -2.821333
C 229.467432 0.353282 -3.402413
C 228.559412 0.358880 -2.432253
C 229.221587 0.038790 -1.183525
N 230.546273 -0.140835 -1.480449
H 227.834298 -1.360901 2.577067
H 229.819644 -1.424826 4.425092
H 231.342129 0.215441 0.861690
H 231.597839 1.999527 4.936730
H 231.519424 2.313750 7.346978
H 231.878846 1.761812 10.907103
H 232.347369 2.589691 9.437346
H 230.697898 1.904552 9.595584
H 232.565296 -1.509106 9.951709
H 230.852701 -1.086828 9.653457
H 231.708872 -0.486393 11.080307
H 233.121066 -1.669412 7.879713
H 233.161257 -1.950010 5.453971
H 234.996960 0.392879 4.458817
H 236.754912 0.471618 2.591993
H 236.434904 -1.265325 -2.623885
H 234.449599 -1.257820 -4.474137
H 232.928844 0.251000 -0.851273
H 232.689566 2.178095 -4.864039
H 232.764419 2.576160 -7.260394
H 233.105340 -0.923305 -9.787926
H 231.333740 -1.012826 -10.040973
H 232.331336 -0.085424 -11.136137
H 233.727639 2.077117 -9.502880
H 232.571922 2.106923 -10.841265
H 232.163530 2.941384 -9.359652
H 231.139434 -1.378922 -7.927021
H 231.097626 -1.739091 -5.517597
H 229.272766 0.564290 -4.438860
H 227.515042 0.571391 -2.570174
