 xtb: 6.5.1 (b24c23e)
          07292222453D

209238  0     0  0            999 V2000
   33.5517    0.0460   -0.0224 Co  0  0  0  0  0  0  0  0  0  0  0  0
   30.1865    0.1538   -0.1383 C   0  0  0  0  0  0  0  0  0  0  0  0
   30.8293    0.8178    0.8853 C   0  0  0  0  0  0  0  0  0  0  0  0
   30.1592    1.5198    1.9365 C   0  0  0  0  0  0  0  0  0  0  0  0
   31.1127    2.1965    2.6209 C   0  0  0  0  0  0  0  0  0  0  0  0
   32.3618    1.9221    1.9733 C   0  0  0  0  0  0  0  0  0  0  0  0
   32.1853    1.0181    0.9580 N   0  0  0  0  0  0  0  0  0  0  0  0
   33.5520    2.5875    2.2481 C   0  0  0  0  0  0  0  0  0  0  0  0
   33.5549    3.6894    3.2320 C   0  0  0  0  0  0  0  0  0  0  0  0
   32.7016    4.7870    3.0816 C   0  0  0  0  0  0  0  0  0  0  0  0
   32.7142    5.8230    3.9955 C   0  0  0  0  0  0  0  0  0  0  0  0
   33.5775    5.7891    5.0980 C   0  0  0  0  0  0  0  0  0  0  0  0
   33.5148    6.8233    6.0183 N   0  0  0  0  0  0  0  0  0  0  0  0
   34.6577    7.0962    6.8790 C   0  0  0  0  0  0  0  0  0  0  0  0
   34.4208    4.6860    5.2629 C   0  0  0  0  0  0  0  0  0  0  0  0
   34.4120    3.6597    4.3344 C   0  0  0  0  0  0  0  0  0  0  0  0
   34.7370    2.2482    1.6093 C   0  0  0  0  0  0  0  0  0  0  0  0
   35.9755    2.9464    1.7786 C   0  0  0  0  0  0  0  0  0  0  0  0
   36.9276    2.2133    1.1509 C   0  0  0  0  0  0  0  0  0  0  0  0
   34.9208    1.1360    0.8201 N   0  0  0  0  0  0  0  0  0  0  0  0
   36.2668    1.0763    0.5942 C   0  0  0  0  0  0  0  0  0  0  0  0
   36.9387   -0.0201    0.0443 C   0  0  0  0  0  0  0  0  0  0  0  0
   36.2479   -1.1002   -0.5152 C   0  0  0  0  0  0  0  0  0  0  0  0
   36.8848   -2.2733   -1.0223 C   0  0  0  0  0  0  0  0  0  0  0  0
   35.9265   -2.9903   -1.6594 C   0  0  0  0  0  0  0  0  0  0  0  0
   34.7107   -2.2412   -1.5540 C   0  0  0  0  0  0  0  0  0  0  0  0
   34.9091   -1.1173   -0.7841 N   0  0  0  0  0  0  0  0  0  0  0  0
   33.5439   -2.5370   -2.2453 C   0  0  0  0  0  0  0  0  0  0  0  0
   33.5379   -3.6582   -3.2071 C   0  0  0  0  0  0  0  0  0  0  0  0
   34.4563   -3.7022   -4.2585 C   0  0  0  0  0  0  0  0  0  0  0  0
   34.4539   -4.7445   -5.1688 C   0  0  0  0  0  0  0  0  0  0  0  0
   33.5345   -5.7897   -5.0371 C   0  0  0  0  0  0  0  0  0  0  0  0
   33.4588   -6.8338   -5.9447 N   0  0  0  0  0  0  0  0  0  0  0  0
   34.6290   -7.1939   -6.7337 C   0  0  0  0  0  0  0  0  0  0  0  0
   32.6090   -5.7491   -3.9863 C   0  0  0  0  0  0  0  0  0  0  0  0
   32.6097   -4.6975   -3.0904 C   0  0  0  0  0  0  0  0  0  0  0  0
   32.3813   -1.7956   -2.0594 C   0  0  0  0  0  0  0  0  0  0  0  0
   31.1655   -1.9994   -2.7910 C   0  0  0  0  0  0  0  0  0  0  0  0
   30.2161   -1.2394   -2.1940 C   0  0  0  0  0  0  0  0  0  0  0  0
   30.8559   -0.5632   -1.1075 C   0  0  0  0  0  0  0  0  0  0  0  0
   32.1962   -0.8591   -1.0762 N   0  0  0  0  0  0  0  0  0  0  0  0
   29.1043    0.1921   -0.1795 H   0  0  0  0  0  0  0  0  0  0  0  0
   29.0951    1.4900    2.1101 H   0  0  0  0  0  0  0  0  0  0  0  0
   30.9926    2.8285    3.4859 H   0  0  0  0  0  0  0  0  0  0  0  0
   32.0422    4.8373    2.2220 H   0  0  0  0  0  0  0  0  0  0  0  0
   32.0544    6.6737    3.8608 H   0  0  0  0  0  0  0  0  0  0  0  0
   33.1074    7.6675    5.6348 H   0  0  0  0  0  0  0  0  0  0  0  0
   35.5818    7.2038    6.2995 H   0  0  0  0  0  0  0  0  0  0  0  0
   34.7807    6.2905    7.6041 H   0  0  0  0  0  0  0  0  0  0  0  0
   34.4601    8.0230    7.4176 H   0  0  0  0  0  0  0  0  0  0  0  0
   35.0842    4.6217    6.1166 H   0  0  0  0  0  0  0  0  0  0  0  0
   35.0643    2.8052    4.4787 H   0  0  0  0  0  0  0  0  0  0  0  0
   36.0911    3.8781    2.3082 H   0  0  0  0  0  0  0  0  0  0  0  0
   37.9853    2.4069    1.0714 H   0  0  0  0  0  0  0  0  0  0  0  0
   37.9316   -2.5026   -0.9026 H   0  0  0  0  0  0  0  0  0  0  0  0
   36.0248   -3.9406   -2.1586 H   0  0  0  0  0  0  0  0  0  0  0  0
   35.1670   -2.8917   -4.3791 H   0  0  0  0  0  0  0  0  0  0  0  0
   35.1677   -4.7374   -5.9833 H   0  0  0  0  0  0  0  0  0  0  0  0
   32.9748   -7.6432   -5.5761 H   0  0  0  0  0  0  0  0  0  0  0  0
   34.8476   -6.4083   -7.4582 H   0  0  0  0  0  0  0  0  0  0  0  0
   34.4014   -8.1128   -7.2739 H   0  0  0  0  0  0  0  0  0  0  0  0
   35.5084   -7.3543   -6.0998 H   0  0  0  0  0  0  0  0  0  0  0  0
   31.8894   -6.5539   -3.8782 H   0  0  0  0  0  0  0  0  0  0  0  0
   31.8995   -4.6899   -2.2708 H   0  0  0  0  0  0  0  0  0  0  0  0
   31.0640   -2.6424   -3.6502 H   0  0  0  0  0  0  0  0  0  0  0  0
   29.1726   -1.1391   -2.4472 H   0  0  0  0  0  0  0  0  0  0  0  0
   65.4376    0.0313   -0.0649 Co  0  0  0  0  0  0  0  0  0  0  0  0
   68.8038    0.1021   -0.1648 C   0  0  0  0  0  0  0  0  0  0  0  0
   68.1585   -1.0403   -0.5899 C   0  0  0  0  0  0  0  0  0  0  0  0
   68.8252   -2.2270   -1.0302 C   0  0  0  0  0  0  0  0  0  0  0  0
   67.8717   -3.0391   -1.5468 C   0  0  0  0  0  0  0  0  0  0  0  0
   66.6263   -2.3371   -1.4403 C   0  0  0  0  0  0  0  0  0  0  0  0
   66.8039   -1.1466   -0.7844 N   0  0  0  0  0  0  0  0  0  0  0  0
   65.4403   -2.7426   -2.0436 C   0  0  0  0  0  0  0  0  0  0  0  0
   65.4370   -3.9499   -2.8948 C   0  0  0  0  0  0  0  0  0  0  0  0
   66.3105   -4.0663   -3.9805 C   0  0  0  0  0  0  0  0  0  0  0  0
   66.3003   -5.1939   -4.7787 C   0  0  0  0  0  0  0  0  0  0  0  0
   65.4185   -6.2485   -4.5102 C   0  0  0  0  0  0  0  0  0  0  0  0
   65.4850   -7.3834   -5.3026 N   0  0  0  0  0  0  0  0  0  0  0  0
   64.3342   -8.2716   -5.3933 C   0  0  0  0  0  0  0  0  0  0  0  0
   64.5530   -6.1440   -3.4170 C   0  0  0  0  0  0  0  0  0  0  0  0
   64.5604   -5.0049   -2.6311 C   0  0  0  0  0  0  0  0  0  0  0  0
   64.2592   -2.0334   -1.8701 C   0  0  0  0  0  0  0  0  0  0  0  0
   63.0264   -2.3410   -2.5301 C   0  0  0  0  0  0  0  0  0  0  0  0
   62.0727   -1.5622   -1.9624 C   0  0  0  0  0  0  0  0  0  0  0  0
   64.0717   -1.0189   -0.9596 N   0  0  0  0  0  0  0  0  0  0  0  0
   62.7271   -0.7766   -0.9654 C   0  0  0  0  0  0  0  0  0  0  0  0
   62.0500    0.0008   -0.0202 C   0  0  0  0  0  0  0  0  0  0  0  0
   62.7365    0.7774    0.9193 C   0  0  0  0  0  0  0  0  0  0  0  0
   62.0949    1.5289    1.9502 C   0  0  0  0  0  0  0  0  0  0  0  0
   63.0526    2.3001    2.5215 C   0  0  0  0  0  0  0  0  0  0  0  0
   64.2730    2.0293    1.8234 C   0  0  0  0  0  0  0  0  0  0  0  0
   64.0771    1.0367    0.8897 N   0  0  0  0  0  0  0  0  0  0  0  0
   65.4429    2.7613    1.9733 C   0  0  0  0  0  0  0  0  0  0  0  0
   65.4507    3.9389    2.8652 C   0  0  0  0  0  0  0  0  0  0  0  0
   64.5413    4.9828    2.6806 C   0  0  0  0  0  0  0  0  0  0  0  0
   64.5460    6.0918    3.5085 C   0  0  0  0  0  0  0  0  0  0  0  0
   65.4583    6.1760    4.5647 C   0  0  0  0  0  0  0  0  0  0  0  0
   65.5360    7.2818    5.3962 N   0  0  0  0  0  0  0  0  0  0  0  0
   64.3700    8.1364    5.5747 C   0  0  0  0  0  0  0  0  0  0  0  0
   66.3754    5.1338    4.7519 C   0  0  0  0  0  0  0  0  0  0  0  0
   66.3727    4.0370    3.9120 C   0  0  0  0  0  0  0  0  0  0  0  0
   66.6087    2.4142    1.2978 C   0  0  0  0  0  0  0  0  0  0  0  0
   67.8277    3.1669    1.3465 C   0  0  0  0  0  0  0  0  0  0  0  0
   68.7780    2.4146    0.7411 C   0  0  0  0  0  0  0  0  0  0  0  0
   68.1359    1.2096    0.3135 C   0  0  0  0  0  0  0  0  0  0  0  0
   66.7934    1.2503    0.5984 N   0  0  0  0  0  0  0  0  0  0  0  0
   69.8867    0.1277   -0.2007 H   0  0  0  0  0  0  0  0  0  0  0  0
   69.8871   -2.3976   -0.9494 H   0  0  0  0  0  0  0  0  0  0  0  0
   67.9900   -4.0251   -1.9663 H   0  0  0  0  0  0  0  0  0  0  0  0
   66.9850   -3.2497   -4.2139 H   0  0  0  0  0  0  0  0  0  0  0  0
   66.9771   -5.2669   -5.6235 H   0  0  0  0  0  0  0  0  0  0  0  0
   65.9133   -7.2100   -6.2038 H   0  0  0  0  0  0  0  0  0  0  0  0
   63.4222   -7.7238   -5.6564 H   0  0  0  0  0  0  0  0  0  0  0  0
   64.1826   -8.7852   -4.4430 H   0  0  0  0  0  0  0  0  0  0  0  0
   64.5425   -9.0155   -6.1623 H   0  0  0  0  0  0  0  0  0  0  0  0
   63.8734   -6.9512   -3.1725 H   0  0  0  0  0  0  0  0  0  0  0  0
   63.8915   -4.9410   -1.7797 H   0  0  0  0  0  0  0  0  0  0  0  0
   62.9154   -3.0591   -3.3263 H   0  0  0  0  0  0  0  0  0  0  0  0
   61.0179   -1.5190   -2.1815 H   0  0  0  0  0  0  0  0  0  0  0  0
   61.0457    1.4670    2.1909 H   0  0  0  0  0  0  0  0  0  0  0  0
   62.9509    2.9927    3.3412 H   0  0  0  0  0  0  0  0  0  0  0  0
   63.8361    4.9356    1.8579 H   0  0  0  0  0  0  0  0  0  0  0  0
   63.8393    6.8919    3.3252 H   0  0  0  0  0  0  0  0  0  0  0  0
   66.0104    7.0857    6.2692 H   0  0  0  0  0  0  0  0  0  0  0  0
   64.1621    8.6825    4.6536 H   0  0  0  0  0  0  0  0  0  0  0  0
   64.5963    8.8549    6.3625 H   0  0  0  0  0  0  0  0  0  0  0  0
   63.4844    7.5557    5.8571 H   0  0  0  0  0  0  0  0  0  0  0  0
   67.0898    5.1922    5.5664 H   0  0  0  0  0  0  0  0  0  0  0  0
   67.0763    3.2292    4.0816 H   0  0  0  0  0  0  0  0  0  0  0  0
   67.9306    4.1447    1.7884 H   0  0  0  0  0  0  0  0  0  0  0  0
   69.8237    2.6350    0.5957 H   0  0  0  0  0  0  0  0  0  0  0  0
   42.1359   -0.0541    0.0791 C   0  0  0  0  0  0  0  0  0  0  0  0
   40.9060   -0.0540    0.0741 C   0  0  0  0  0  0  0  0  0  0  0  0
   39.5641   -0.0478    0.0675 C   0  0  0  0  0  0  0  0  0  0  0  0
   38.3390   -0.0385    0.0582 C   0  0  0  0  0  0  0  0  0  0  0  0
   43.4777   -0.0504    0.0785 C   0  0  0  0  0  0  0  0  0  0  0  0
   44.7031   -0.0438    0.0728 C   0  0  0  0  0  0  0  0  0  0  0  0
   58.0821   -0.0089    0.0074 C   0  0  0  0  0  0  0  0  0  0  0  0
   56.8522   -0.0099    0.0113 C   0  0  0  0  0  0  0  0  0  0  0  0
   55.5102   -0.0076    0.0123 C   0  0  0  0  0  0  0  0  0  0  0  0
   54.2847   -0.0039    0.0087 C   0  0  0  0  0  0  0  0  0  0  0  0
   59.4242   -0.0068   -0.0003 C   0  0  0  0  0  0  0  0  0  0  0  0
   60.6494   -0.0044   -0.0080 C   0  0  0  0  0  0  0  0  0  0  0  0
   49.4931    0.0174   -0.0044 Co  0  0  0  0  0  0  0  0  0  0  0  0
   46.1028   -0.0327    0.0606 C   0  0  0  0  0  0  0  0  0  0  0  0
   46.7888   -1.1426   -0.4446 C   0  0  0  0  0  0  0  0  0  0  0  0
   46.1349   -2.3053   -0.9537 C   0  0  0  0  0  0  0  0  0  0  0  0
   47.0871   -3.0452   -1.5727 C   0  0  0  0  0  0  0  0  0  0  0  0
   48.3220   -2.3357   -1.4284 C   0  0  0  0  0  0  0  0  0  0  0  0
   48.1316   -1.1912   -0.6888 N   0  0  0  0  0  0  0  0  0  0  0  0
   49.4897   -2.6549   -2.1101 C   0  0  0  0  0  0  0  0  0  0  0  0
   49.4853   -3.8062   -3.0405 C   0  0  0  0  0  0  0  0  0  0  0  0
   49.2598   -5.1031   -2.5717 C   0  0  0  0  0  0  0  0  0  0  0  0
   49.2600   -6.1773   -3.4410 C   0  0  0  0  0  0  0  0  0  0  0  0
   49.4785   -5.9844   -4.8109 C   0  0  0  0  0  0  0  0  0  0  0  0
   49.4121   -7.0839   -5.6519 N   0  0  0  0  0  0  0  0  0  0  0  0
   50.0782   -7.0455   -6.9468 C   0  0  0  0  0  0  0  0  0  0  0  0
   49.6891   -4.6864   -5.2861 C   0  0  0  0  0  0  0  0  0  0  0  0
   49.7006   -3.6175   -4.4065 C   0  0  0  0  0  0  0  0  0  0  0  0
   50.6620   -1.9283   -1.9426 C   0  0  0  0  0  0  0  0  0  0  0  0
   51.8999   -2.2402   -2.5904 C   0  0  0  0  0  0  0  0  0  0  0  0
   52.8575   -1.4945   -1.9862 C   0  0  0  0  0  0  0  0  0  0  0  0
   50.8566   -0.9636   -0.9809 N   0  0  0  0  0  0  0  0  0  0  0  0
   52.2025   -0.7342   -0.9708 C   0  0  0  0  0  0  0  0  0  0  0  0
   52.8847    0.0058    0.0019 C   0  0  0  0  0  0  0  0  0  0  0  0
   52.2038    0.7634    0.9612 C   0  0  0  0  0  0  0  0  0  0  0  0
   52.8542    1.5118    1.9880 C   0  0  0  0  0  0  0  0  0  0  0  0
   51.9005    2.2818    2.5692 C   0  0  0  0  0  0  0  0  0  0  0  0
   50.6742    2.0051    1.8857 C   0  0  0  0  0  0  0  0  0  0  0  0
   50.8617    1.0168    0.9484 N   0  0  0  0  0  0  0  0  0  0  0  0
   49.4967    2.7225    2.0630 C   0  0  0  0  0  0  0  0  0  0  0  0
   49.5040    3.9080    2.9429 C   0  0  0  0  0  0  0  0  0  0  0  0
   48.6144    4.0126    4.0148 C   0  0  0  0  0  0  0  0  0  0  0  0
   48.6209    5.1191    4.8459 C   0  0  0  0  0  0  0  0  0  0  0  0
   49.5232    6.1630    4.6187 C   0  0  0  0  0  0  0  0  0  0  0  0
   49.5355    7.3189    5.3813 N   0  0  0  0  0  0  0  0  0  0  0  0
   49.0047    7.3026    6.7373 C   0  0  0  0  0  0  0  0  0  0  0  0
   50.4084    6.0693    3.5367 C   0  0  0  0  0  0  0  0  0  0  0  0
   50.4030    4.9560    2.7194 C   0  0  0  0  0  0  0  0  0  0  0  0
   48.3141    2.3491    1.4357 C   0  0  0  0  0  0  0  0  0  0  0  0
   47.0816    3.0693    1.5362 C   0  0  0  0  0  0  0  0  0  0  0  0
   46.1235    2.2828    0.9856 C   0  0  0  0  0  0  0  0  0  0  0  0
   46.7785    1.0974    0.5348 C   0  0  0  0  0  0  0  0  0  0  0  0
   48.1239    1.1694    0.7543 N   0  0  0  0  0  0  0  0  0  0  0  0
   45.0788   -2.5026   -0.8649 H   0  0  0  0  0  0  0  0  0  0  0  0
   46.9660   -3.9747   -2.1043 H   0  0  0  0  0  0  0  0  0  0  0  0
   49.1073   -5.2697   -1.5110 H   0  0  0  0  0  0  0  0  0  0  0  0
   49.0917   -7.1805   -3.0638 H   0  0  0  0  0  0  0  0  0  0  0  0
   49.5581   -7.9608   -5.1667 H   0  0  0  0  0  0  0  0  0  0  0  0
   49.5639   -6.3500   -7.6116 H   0  0  0  0  0  0  0  0  0  0  0  0
   51.1275   -6.7437   -6.8513 H   0  0  0  0  0  0  0  0  0  0  0  0
   50.0284   -8.0441   -7.3807 H   0  0  0  0  0  0  0  0  0  0  0  0
   49.8405   -4.5036   -6.3428 H   0  0  0  0  0  0  0  0  0  0  0  0
   49.8551   -2.6141   -4.7881 H   0  0  0  0  0  0  0  0  0  0  0  0
   52.0178   -2.9593   -3.3844 H   0  0  0  0  0  0  0  0  0  0  0  0
   53.9168   -1.4668   -2.1851 H   0  0  0  0  0  0  0  0  0  0  0  0
   53.9060    1.4528    2.2175 H   0  0  0  0  0  0  0  0  0  0  0  0
   52.0089    2.9743    3.3880 H   0  0  0  0  0  0  0  0  0  0  0  0
   47.9237    3.2007    4.2152 H   0  0  0  0  0  0  0  0  0  0  0  0
   47.9212    5.1644    5.6713 H   0  0  0  0  0  0  0  0  0  0  0  0
   50.4069    7.8301    5.3107 H   0  0  0  0  0  0  0  0  0  0  0  0
   49.4628    6.5097    7.3396 H   0  0  0  0  0  0  0  0  0  0  0  0
   49.2167    8.2696    7.1933 H   0  0  0  0  0  0  0  0  0  0  0  0
   47.9241    7.1571    6.7142 H   0  0  0  0  0  0  0  0  0  0  0  0
   51.1009    6.8817    3.3430 H   0  0  0  0  0  0  0  0  0  0  0  0
   51.0861    4.9031    1.8788 H   0  0  0  0  0  0  0  0  0  0  0  0
   46.9718    4.0491    1.9717 H   0  0  0  0  0  0  0  0  0  0  0  0
   45.0667    2.4735    0.8896 H   0  0  0  0  0  0  0  0  0  0  0  0
  2  3  4  0  0  0  0
  3  4  4  0  0  0  0
  4  5  2  0  0  0  0
  5  6  4  0  0  0  0
  1  7  1  0  0  0  0
  3  7  4  0  0  0  0
  6  7  4  0  0  0  0
  6  8  4  0  0  0  0
  8  9  1  0  0  0  0
  9 10  4  0  0  0  0
 10 11  4  0  0  0  0
 11 12  4  0  0  0  0
 12 13  1  0  0  0  0
 13 14  1  0  0  0  0
 12 15  4  0  0  0  0
  9 16  4  0  0  0  0
 15 16  4  0  0  0  0
  8 17  4  0  0  0  0
 17 18  4  0  0  0  0
 18 19  2  0  0  0  0
  1 20  1  0  0  0  0
 17 20  4  0  0  0  0
 19 21  4  0  0  0  0
 20 21  4  0  0  0  0
 21 22  4  0  0  0  0
 22 23  4  0  0  0  0
 23 24  4  0  0  0  0
 24 25  2  0  0  0  0
 25 26  4  0  0  0  0
  1 27  1  0  0  0  0
 23 27  4  0  0  0  0
 26 27  4  0  0  0  0
 26 28  4  0  0  0  0
 28 29  1  0  0  0  0
 29 30  4  0  0  0  0
 30 31  4  0  0  0  0
 31 32  4  0  0  0  0
 32 33  1  0  0  0  0
 33 34  1  0  0  0  0
 32 35  4  0  0  0  0
 29 36  4  0  0  0  0
 35 36  4  0  0  0  0
 28 37  4  0  0  0  0
 37 38  4  0  0  0  0
 38 39  2  0  0  0  0
  2 40  4  0  0  0  0
 39 40  4  0  0  0  0
  1 41  1  0  0  0  0
 37 41  4  0  0  0  0
 40 41  4  0  0  0  0
  2 42  1  0  0  0  0
  4 43  1  0  0  0  0
  5 44  1  0  0  0  0
 10 45  1  0  0  0  0
 11 46  1  0  0  0  0
 13 47  1  0  0  0  0
 14 48  1  0  0  0  0
 14 49  1  0  0  0  0
 14 50  1  0  0  0  0
 15 51  1  0  0  0  0
 16 52  1  0  0  0  0
 18 53  1  0  0  0  0
 19 54  1  0  0  0  0
 24 55  1  0  0  0  0
 25 56  1  0  0  0  0
 30 57  1  0  0  0  0
 31 58  1  0  0  0  0
 33 59  1  0  0  0  0
 34 60  1  0  0  0  0
 34 61  1  0  0  0  0
 34 62  1  0  0  0  0
 35 63  1  0  0  0  0
 36 64  1  0  0  0  0
 38 65  1  0  0  0  0
 39 66  1  0  0  0  0
 68 69  4  0  0  0  0
 69 70  4  0  0  0  0
 70 71  2  0  0  0  0
 71 72  4  0  0  0  0
 67 73  1  0  0  0  0
 69 73  4  0  0  0  0
 72 73  4  0  0  0  0
 72 74  4  0  0  0  0
 74 75  1  0  0  0  0
 75 76  4  0  0  0  0
 76 77  4  0  0  0  0
 77 78  4  0  0  0  0
 78 79  1  0  0  0  0
 79 80  1  0  0  0  0
 78 81  4  0  0  0  0
 75 82  4  0  0  0  0
 81 82  4  0  0  0  0
 74 83  4  0  0  0  0
 83 84  4  0  0  0  0
 84 85  2  0  0  0  0
 67 86  1  0  0  0  0
 83 86  4  0  0  0  0
 85 87  4  0  0  0  0
 86 87  4  0  0  0  0
 87 88  4  0  0  0  0
 88 89  4  0  0  0  0
 89 90  4  0  0  0  0
 90 91  2  0  0  0  0
 91 92  4  0  0  0  0
 67 93  1  0  0  0  0
 89 93  4  0  0  0  0
 92 93  4  0  0  0  0
 92 94  4  0  0  0  0
 94 95  1  0  0  0  0
 95 96  4  0  0  0  0
 96 97  4  0  0  0  0
 97 98  4  0  0  0  0
 98 99  1  0  0  0  0
 99100  1  0  0  0  0
 98101  4  0  0  0  0
 95102  4  0  0  0  0
101102  4  0  0  0  0
 94103  4  0  0  0  0
103104  4  0  0  0  0
104105  2  0  0  0  0
 68106  4  0  0  0  0
105106  4  0  0  0  0
 67107  1  0  0  0  0
103107  4  0  0  0  0
106107  4  0  0  0  0
 68108  1  0  0  0  0
 70109  1  0  0  0  0
 71110  1  0  0  0  0
 76111  1  0  0  0  0
 77112  1  0  0  0  0
 79113  1  0  0  0  0
 80114  1  0  0  0  0
 80115  1  0  0  0  0
 80116  1  0  0  0  0
 81117  1  0  0  0  0
 82118  1  0  0  0  0
 84119  1  0  0  0  0
 85120  1  0  0  0  0
 90121  1  0  0  0  0
 91122  1  0  0  0  0
 96123  1  0  0  0  0
 97124  1  0  0  0  0
 99125  1  0  0  0  0
100126  1  0  0  0  0
100127  1  0  0  0  0
100128  1  0  0  0  0
101129  1  0  0  0  0
102130  1  0  0  0  0
104131  1  0  0  0  0
105132  1  0  0  0  0
133134  3  0  0  0  0
134135  4  0  0  0  0
 22136  4  0  0  0  0
135136  3  0  0  0  0
133137  4  0  0  0  0
137138  3  0  0  0  0
139140  3  0  0  0  0
140141  4  0  0  0  0
141142  3  0  0  0  0
139143  4  0  0  0  0
 88144  4  0  0  0  0
143144  3  0  0  0  0
138146  4  0  0  0  0
146147  4  0  0  0  0
147148  4  0  0  0  0
148149  2  0  0  0  0
149150  4  0  0  0  0
145151  1  0  0  0  0
147151  4  0  0  0  0
150151  4  0  0  0  0
150152  4  0  0  0  0
152153  1  0  0  0  0
153154  4  0  0  0  0
154155  4  0  0  0  0
155156  4  0  0  0  0
156157  1  0  0  0  0
157158  1  0  0  0  0
156159  4  0  0  0  0
153160  4  0  0  0  0
159160  4  0  0  0  0
152161  4  0  0  0  0
161162  4  0  0  0  0
162163  2  0  0  0  0
145164  1  0  0  0  0
161164  4  0  0  0  0
163165  4  0  0  0  0
164165  4  0  0  0  0
142166  4  0  0  0  0
165166  4  0  0  0  0
166167  4  0  0  0  0
167168  4  0  0  0  0
168169  2  0  0  0  0
169170  4  0  0  0  0
145171  1  0  0  0  0
167171  4  0  0  0  0
170171  4  0  0  0  0
170172  4  0  0  0  0
172173  1  0  0  0  0
173174  4  0  0  0  0
174175  4  0  0  0  0
175176  4  0  0  0  0
176177  1  0  0  0  0
177178  1  0  0  0  0
176179  4  0  0  0  0
173180  4  0  0  0  0
179180  4  0  0  0  0
172181  4  0  0  0  0
181182  4  0  0  0  0
182183  2  0  0  0  0
146184  4  0  0  0  0
183184  4  0  0  0  0
145185  1  0  0  0  0
181185  4  0  0  0  0
184185  4  0  0  0  0
148186  1  0  0  0  0
149187  1  0  0  0  0
154188  1  0  0  0  0
155189  1  0  0  0  0
157190  1  0  0  0  0
158191  1  0  0  0  0
158192  1  0  0  0  0
158193  1  0  0  0  0
159194  1  0  0  0  0
160195  1  0  0  0  0
162196  1  0  0  0  0
163197  1  0  0  0  0
168198  1  0  0  0  0
169199  1  0  0  0  0
174200  1  0  0  0  0
175201  1  0  0  0  0
177202  1  0  0  0  0
178203  1  0  0  0  0
178204  1  0  0  0  0
178205  1  0  0  0  0
179206  1  0  0  0  0
180207  1  0  0  0  0
182208  1  0  0  0  0
183209  1  0  0  0  0
M  END
