 xtb: 6.5.1 (b24c23e)
          07302208263D

236275  0     0  0            999 V2000
   54.6180    0.0401    0.0444 Co  0  0  0  0  0  0  0  0  0  0  0  0
   51.2513    0.0386    0.1602 C   0  0  0  0  0  0  0  0  0  0  0  0
   51.9044    1.2487    0.0581 C   0  0  0  0  0  0  0  0  0  0  0  0
   51.2438    2.5144   -0.0423 C   0  0  0  0  0  0  0  0  0  0  0  0
   52.2015    3.4635    0.0834 C   0  0  0  0  0  0  0  0  0  0  0  0
   53.4440    2.7750    0.2791 C   0  0  0  0  0  0  0  0  0  0  0  0
   53.2602    1.4197    0.1859 N   0  0  0  0  0  0  0  0  0  0  0  0
   54.6332    3.3899    0.6527 C   0  0  0  0  0  0  0  0  0  0  0  0
   54.6411    4.8438    0.9238 C   0  0  0  0  0  0  0  0  0  0  0  0
   53.7960    5.3888    1.8938 C   0  0  0  0  0  0  0  0  0  0  0  0
   53.8068    6.7469    2.1554 C   0  0  0  0  0  0  0  0  0  0  0  0
   54.6642    7.5912    1.4437 C   0  0  0  0  0  0  0  0  0  0  0  0
   54.6764    8.9898    1.7092 C   0  0  0  0  0  0  0  0  0  0  0  0
   54.6862   10.1204    1.9231 N   0  0  0  0  0  0  0  0  0  0  0  0
   55.5100    7.0516    0.4700 C   0  0  0  0  0  0  0  0  0  0  0  0
   55.4981    5.6917    0.2175 C   0  0  0  0  0  0  0  0  0  0  0  0
   55.8123    2.6720    0.7935 C   0  0  0  0  0  0  0  0  0  0  0  0
   57.0491    3.2275    1.2548 C   0  0  0  0  0  0  0  0  0  0  0  0
   57.9965    2.2756    1.0732 C   0  0  0  0  0  0  0  0  0  0  0  0
   55.9919    1.3651    0.4033 N   0  0  0  0  0  0  0  0  0  0  0  0
   57.3361    1.1422    0.5075 C   0  0  0  0  0  0  0  0  0  0  0  0
   58.0053    0.0276   -0.0048 C   0  0  0  0  0  0  0  0  0  0  0  0
   57.3146   -1.0750   -0.5152 C   0  0  0  0  0  0  0  0  0  0  0  0
   57.9492   -2.1989   -1.1273 C   0  0  0  0  0  0  0  0  0  0  0  0
   56.9860   -3.1327   -1.3198 C   0  0  0  0  0  0  0  0  0  0  0  0
   55.7675   -2.5797   -0.8091 C   0  0  0  0  0  0  0  0  0  0  0  0
   55.9710   -1.2858   -0.3864 N   0  0  0  0  0  0  0  0  0  0  0  0
   54.5911   -3.2952   -0.6388 C   0  0  0  0  0  0  0  0  0  0  0  0
   54.5732   -4.7397   -0.9554 C   0  0  0  0  0  0  0  0  0  0  0  0
   53.6729   -5.2456   -1.8966 C   0  0  0  0  0  0  0  0  0  0  0  0
   53.6566   -6.5943   -2.2026 C   0  0  0  0  0  0  0  0  0  0  0  0
   54.5416   -7.4687   -1.5646 C   0  0  0  0  0  0  0  0  0  0  0  0
   54.5277   -8.8573   -1.8777 C   0  0  0  0  0  0  0  0  0  0  0  0
   54.5173   -9.9789   -2.1345 N   0  0  0  0  0  0  0  0  0  0  0  0
   55.4409   -6.9687   -0.6180 C   0  0  0  0  0  0  0  0  0  0  0  0
   55.4556   -5.6178   -0.3211 C   0  0  0  0  0  0  0  0  0  0  0  0
   53.4278   -2.6894   -0.1778 C   0  0  0  0  0  0  0  0  0  0  0  0
   52.2020   -3.3840    0.0882 C   0  0  0  0  0  0  0  0  0  0  0  0
   51.2588   -2.4399    0.3177 C   0  0  0  0  0  0  0  0  0  0  0  0
   51.9111   -1.1712    0.2005 C   0  0  0  0  0  0  0  0  0  0  0  0
   53.2534   -1.3378   -0.0344 N   0  0  0  0  0  0  0  0  0  0  0  0
   50.1686    0.0380    0.2023 H   0  0  0  0  0  0  0  0  0  0  0  0
   50.1824    2.6399   -0.1849 H   0  0  0  0  0  0  0  0  0  0  0  0
   52.0897    4.5352    0.0522 H   0  0  0  0  0  0  0  0  0  0  0  0
   53.1403    4.7359    2.4588 H   0  0  0  0  0  0  0  0  0  0  0  0
   53.1529    7.1610    2.9140 H   0  0  0  0  0  0  0  0  0  0  0  0
   56.1736    7.7034   -0.0860 H   0  0  0  0  0  0  0  0  0  0  0  0
   56.1464    5.2792   -0.5473 H   0  0  0  0  0  0  0  0  0  0  0  0
   57.1664    4.2172    1.6652 H   0  0  0  0  0  0  0  0  0  0  0  0
   59.0505    2.3243    1.2937 H   0  0  0  0  0  0  0  0  0  0  0  0
   58.9976   -2.2526   -1.3727 H   0  0  0  0  0  0  0  0  0  0  0  0
   57.0820   -4.1094   -1.7651 H   0  0  0  0  0  0  0  0  0  0  0  0
   52.9946   -4.5690   -2.4039 H   0  0  0  0  0  0  0  0  0  0  0  0
   52.9601   -6.9778   -2.9390 H   0  0  0  0  0  0  0  0  0  0  0  0
   56.1250   -7.6441   -0.1179 H   0  0  0  0  0  0  0  0  0  0  0  0
   56.1453   -5.2368    0.4236 H   0  0  0  0  0  0  0  0  0  0  0  0
   52.0910   -4.4562    0.0948 H   0  0  0  0  0  0  0  0  0  0  0  0
   50.2111   -2.5702    0.5368 H   0  0  0  0  0  0  0  0  0  0  0  0
   87.0749    0.0105    0.1015 Co  0  0  0  0  0  0  0  0  0  0  0  0
   90.4486    0.0276    0.2960 C   0  0  0  0  0  0  0  0  0  0  0  0
   89.8022   -1.1887    0.2611 C   0  0  0  0  0  0  0  0  0  0  0  0
   90.4810   -2.4487    0.2665 C   0  0  0  0  0  0  0  0  0  0  0  0
   89.5266   -3.4028    0.3658 C   0  0  0  0  0  0  0  0  0  0  0  0
   88.2668   -2.7219    0.4414 C   0  0  0  0  0  0  0  0  0  0  0  0
   88.4425   -1.3672    0.3143 N   0  0  0  0  0  0  0  0  0  0  0  0
   87.0612   -3.3518    0.7155 C   0  0  0  0  0  0  0  0  0  0  0  0
   87.0543   -4.8053    0.9981 C   0  0  0  0  0  0  0  0  0  0  0  0
   87.7770   -5.3162    2.0788 C   0  0  0  0  0  0  0  0  0  0  0  0
   87.7608   -6.6704    2.3603 C   0  0  0  0  0  0  0  0  0  0  0  0
   87.0217   -7.5440    1.5571 C   0  0  0  0  0  0  0  0  0  0  0  0
   87.0012   -8.9381    1.8447 C   0  0  0  0  0  0  0  0  0  0  0  0
   86.9828  -10.0634    2.0852 N   0  0  0  0  0  0  0  0  0  0  0  0
   86.3015   -7.0384    0.4708 C   0  0  0  0  0  0  0  0  0  0  0  0
   86.3172   -5.6821    0.1990 C   0  0  0  0  0  0  0  0  0  0  0  0
   85.8633   -2.6545    0.7645 C   0  0  0  0  0  0  0  0  0  0  0  0
   84.6090   -3.2468    1.1217 C   0  0  0  0  0  0  0  0  0  0  0  0
   83.6626   -2.2954    0.9418 C   0  0  0  0  0  0  0  0  0  0  0  0
   85.6923   -1.3341    0.4198 N   0  0  0  0  0  0  0  0  0  0  0  0
   84.3413   -1.1251    0.4813 C   0  0  0  0  0  0  0  0  0  0  0  0
   83.6791    0.0262    0.0622 C   0  0  0  0  0  0  0  0  0  0  0  0
   84.3605    1.1579   -0.3806 C   0  0  0  0  0  0  0  0  0  0  0  0
   83.7042    2.3080   -0.9178 C   0  0  0  0  0  0  0  0  0  0  0  0
   84.6687    3.2267   -1.1609 C   0  0  0  0  0  0  0  0  0  0  0  0
   85.9089    2.6429   -0.7450 C   0  0  0  0  0  0  0  0  0  0  0  0
   85.7135    1.3484   -0.3203 N   0  0  0  0  0  0  0  0  0  0  0  0
   87.1072    3.3370   -0.6807 C   0  0  0  0  0  0  0  0  0  0  0  0
   87.1330    4.7689   -1.0572 C   0  0  0  0  0  0  0  0  0  0  0  0
   87.9356    5.2023   -2.1150 C   0  0  0  0  0  0  0  0  0  0  0  0
   87.9580    6.5358   -2.4819 C   0  0  0  0  0  0  0  0  0  0  0  0
   87.1793    7.4666   -1.7877 C   0  0  0  0  0  0  0  0  0  0  0  0
   87.1997    8.8398   -2.1628 C   0  0  0  0  0  0  0  0  0  0  0  0
   87.2155    9.9490   -2.4687 N   0  0  0  0  0  0  0  0  0  0  0  0
   86.3804    7.0390   -0.7232 C   0  0  0  0  0  0  0  0  0  0  0  0
   86.3577    5.7026   -0.3661 C   0  0  0  0  0  0  0  0  0  0  0  0
   88.2840    2.7326   -0.2604 C   0  0  0  0  0  0  0  0  0  0  0  0
   89.5215    3.4330   -0.0763 C   0  0  0  0  0  0  0  0  0  0  0  0
   90.4573    2.5021    0.2213 C   0  0  0  0  0  0  0  0  0  0  0  0
   89.7911    1.2352    0.2158 C   0  0  0  0  0  0  0  0  0  0  0  0
   88.4486    1.3918   -0.0261 N   0  0  0  0  0  0  0  0  0  0  0  0
   91.5296    0.0338    0.3701 H   0  0  0  0  0  0  0  0  0  0  0  0
   91.5510   -2.5657    0.2023 H   0  0  0  0  0  0  0  0  0  0  0  0
   89.6492   -4.4734    0.3899 H   0  0  0  0  0  0  0  0  0  0  0  0
   88.3400   -4.6398    2.7120 H   0  0  0  0  0  0  0  0  0  0  0  0
   88.3176   -7.0583    3.2052 H   0  0  0  0  0  0  0  0  0  0  0  0
   85.7311   -7.7136   -0.1562 H   0  0  0  0  0  0  0  0  0  0  0  0
   85.7646   -5.2949   -0.6496 H   0  0  0  0  0  0  0  0  0  0  0  0
   84.4818   -4.2593    1.4683 H   0  0  0  0  0  0  0  0  0  0  0  0
   82.5978   -2.3643    1.0964 H   0  0  0  0  0  0  0  0  0  0  0  0
   82.6419    2.3832   -1.0860 H   0  0  0  0  0  0  0  0  0  0  0  0
   84.5609    4.2139   -1.5797 H   0  0  0  0  0  0  0  0  0  0  0  0
   88.5325    4.4813   -2.6620 H   0  0  0  0  0  0  0  0  0  0  0  0
   88.5769    6.8635   -3.3089 H   0  0  0  0  0  0  0  0  0  0  0  0
   85.7799    7.7588   -0.1794 H   0  0  0  0  0  0  0  0  0  0  0  0
   85.7458    5.3770    0.4675 H   0  0  0  0  0  0  0  0  0  0  0  0
   89.6416    4.5008   -0.1624 H   0  0  0  0  0  0  0  0  0  0  0  0
   91.5090    2.6377    0.4172 H   0  0  0  0  0  0  0  0  0  0  0  0
   59.4099    0.0204   -0.0167 C   0  0  0  0  0  0  0  0  0  0  0  0
   60.6274    0.0170   -0.0246 C   0  0  0  0  0  0  0  0  0  0  0  0
   70.2193    0.0170   -0.0108 C   0  0  0  0  0  0  0  0  0  0  0  0
   71.4370    0.0200   -0.0090 C   0  0  0  0  0  0  0  0  0  0  0  0
   81.0525    0.0437    0.0555 C   0  0  0  0  0  0  0  0  0  0  0  0
   82.2677    0.0368    0.0601 C   0  0  0  0  0  0  0  0  0  0  0  0
   65.4240    0.0330   -0.0690 Co  0  0  0  0  0  0  0  0  0  0  0  0
   62.0314    0.0170   -0.0298 C   0  0  0  0  0  0  0  0  0  0  0  0
   62.7134   -1.1950   -0.1715 C   0  0  0  0  0  0  0  0  0  0  0  0
   62.0666   -2.4647   -0.2680 C   0  0  0  0  0  0  0  0  0  0  0  0
   63.0223   -3.3626   -0.6118 C   0  0  0  0  0  0  0  0  0  0  0  0
   64.2478   -2.6327   -0.7324 C   0  0  0  0  0  0  0  0  0  0  0  0
   64.0579   -1.3163   -0.3832 N   0  0  0  0  0  0  0  0  0  0  0  0
   65.4240   -3.1535   -1.2568 C   0  0  0  0  0  0  0  0  0  0  0  0
   65.4214   -4.5280   -1.8016 C   0  0  0  0  0  0  0  0  0  0  0  0
   64.5404   -4.8816   -2.8268 C   0  0  0  0  0  0  0  0  0  0  0  0
   64.5422   -6.1633   -3.3467 C   0  0  0  0  0  0  0  0  0  0  0  0
   65.4258   -7.1227   -2.8434 C   0  0  0  0  0  0  0  0  0  0  0  0
   65.4310   -8.4432   -3.3756 C   0  0  0  0  0  0  0  0  0  0  0  0
   65.4366   -9.5092   -3.8085 N   0  0  0  0  0  0  0  0  0  0  0  0
   66.3056   -6.7758   -1.8137 C   0  0  0  0  0  0  0  0  0  0  0  0
   66.3029   -5.4905   -1.3026 C   0  0  0  0  0  0  0  0  0  0  0  0
   66.6025   -2.4193   -1.2868 C   0  0  0  0  0  0  0  0  0  0  0  0
   67.8304   -2.8781   -1.8623 C   0  0  0  0  0  0  0  0  0  0  0  0
   68.7872   -1.9884   -1.4994 C   0  0  0  0  0  0  0  0  0  0  0  0
   66.7945   -1.2199   -0.6422 N   0  0  0  0  0  0  0  0  0  0  0  0
   68.1376   -0.9857   -0.7172 C   0  0  0  0  0  0  0  0  0  0  0  0
   68.8155    0.0148   -0.0141 C   0  0  0  0  0  0  0  0  0  0  0  0
   68.1324    1.0174    0.6805 C   0  0  0  0  0  0  0  0  0  0  0  0
   68.7782    2.0257    1.4592 C   0  0  0  0  0  0  0  0  0  0  0  0
   67.8204    2.9190    1.8087 C   0  0  0  0  0  0  0  0  0  0  0  0
   66.5957    2.4573    1.2284 C   0  0  0  0  0  0  0  0  0  0  0  0
   66.7880    1.2466    0.6042 N   0  0  0  0  0  0  0  0  0  0  0  0
   65.4205    3.1954    1.1828 C   0  0  0  0  0  0  0  0  0  0  0  0
   65.4177    4.5761    1.7116 C   0  0  0  0  0  0  0  0  0  0  0  0
   64.5270    4.9446    2.7231 C   0  0  0  0  0  0  0  0  0  0  0  0
   64.5259    6.2330    3.2264 C   0  0  0  0  0  0  0  0  0  0  0  0
   65.4164    7.1841    2.7197 C   0  0  0  0  0  0  0  0  0  0  0  0
   65.4191    8.5114    3.2347 C   0  0  0  0  0  0  0  0  0  0  0  0
   65.4235    9.5827    3.6546 N   0  0  0  0  0  0  0  0  0  0  0  0
   66.3057    6.8223    1.7035 C   0  0  0  0  0  0  0  0  0  0  0  0
   66.3059    5.5306    1.2091 C   0  0  0  0  0  0  0  0  0  0  0  0
   64.2461    2.6735    0.6546 C   0  0  0  0  0  0  0  0  0  0  0  0
   63.0232    3.4039    0.5171 C   0  0  0  0  0  0  0  0  0  0  0  0
   62.0674    2.5028    0.1799 C   0  0  0  0  0  0  0  0  0  0  0  0
   62.7122    1.2313    0.1037 C   0  0  0  0  0  0  0  0  0  0  0  0
   64.0538    1.3516    0.3302 N   0  0  0  0  0  0  0  0  0  0  0  0
   61.0153   -2.6316   -0.0977 H   0  0  0  0  0  0  0  0  0  0  0  0
   62.9169   -4.4232   -0.7718 H   0  0  0  0  0  0  0  0  0  0  0  0
   63.8639   -4.1366   -3.2302 H   0  0  0  0  0  0  0  0  0  0  0  0
   63.8608   -6.4276   -4.1468 H   0  0  0  0  0  0  0  0  0  0  0  0
   66.9887   -7.5181   -1.4179 H   0  0  0  0  0  0  0  0  0  0  0  0
   66.9773   -5.2295   -0.4950 H   0  0  0  0  0  0  0  0  0  0  0  0
   67.9370   -3.7651   -2.4652 H   0  0  0  0  0  0  0  0  0  0  0  0
   69.8399   -1.9992   -1.7312 H   0  0  0  0  0  0  0  0  0  0  0  0
   69.8296    2.0377    1.6970 H   0  0  0  0  0  0  0  0  0  0  0  0
   67.9245    3.8120    2.4031 H   0  0  0  0  0  0  0  0  0  0  0  0
   63.8448    4.2061    3.1290 H   0  0  0  0  0  0  0  0  0  0  0  0
   63.8366    6.5089    4.0157 H   0  0  0  0  0  0  0  0  0  0  0  0
   66.9939    7.5584    1.3047 H   0  0  0  0  0  0  0  0  0  0  0  0
   66.9876    5.2582    0.4114 H   0  0  0  0  0  0  0  0  0  0  0  0
   62.9188    4.4672    0.6593 H   0  0  0  0  0  0  0  0  0  0  0  0
   61.0182    2.6706   -0.0014 H   0  0  0  0  0  0  0  0  0  0  0  0
   76.2424    0.0406    0.0009 Co  0  0  0  0  0  0  0  0  0  0  0  0
   72.8414    0.0263   -0.0092 C   0  0  0  0  0  0  0  0  0  0  0  0
   73.5250   -1.1735   -0.2201 C   0  0  0  0  0  0  0  0  0  0  0  0
   72.8702   -2.4318   -0.3897 C   0  0  0  0  0  0  0  0  0  0  0  0
   73.8295   -3.3247   -0.7329 C   0  0  0  0  0  0  0  0  0  0  0  0
   75.0655   -2.6032   -0.7784 C   0  0  0  0  0  0  0  0  0  0  0  0
   74.8734   -1.2939   -0.4022 N   0  0  0  0  0  0  0  0  0  0  0  0
   76.2594   -3.1377   -1.2392 C   0  0  0  0  0  0  0  0  0  0  0  0
   76.2647   -4.5135   -1.7846 C   0  0  0  0  0  0  0  0  0  0  0  0
   75.4709   -4.8390   -2.8870 C   0  0  0  0  0  0  0  0  0  0  0  0
   75.4767   -6.1215   -3.4050 C   0  0  0  0  0  0  0  0  0  0  0  0
   76.2759   -7.1092   -2.8217 C   0  0  0  0  0  0  0  0  0  0  0  0
   76.2829   -8.4308   -3.3511 C   0  0  0  0  0  0  0  0  0  0  0  0
   76.2894   -9.4983   -3.7806 N   0  0  0  0  0  0  0  0  0  0  0  0
   77.0684   -6.7897   -1.7152 C   0  0  0  0  0  0  0  0  0  0  0  0
   77.0630   -5.5033   -1.2066 C   0  0  0  0  0  0  0  0  0  0  0  0
   77.4503   -2.4247   -1.2017 C   0  0  0  0  0  0  0  0  0  0  0  0
   78.6975   -2.9228   -1.6983 C   0  0  0  0  0  0  0  0  0  0  0  0
   79.6488   -2.0351   -1.3212 C   0  0  0  0  0  0  0  0  0  0  0  0
   77.6261   -1.2075   -0.5884 N   0  0  0  0  0  0  0  0  0  0  0  0
   78.9765   -0.9925   -0.6126 C   0  0  0  0  0  0  0  0  0  0  0  0
   79.6419    0.0444    0.0400 C   0  0  0  0  0  0  0  0  0  0  0  0
   78.9592    1.0837    0.6695 C   0  0  0  0  0  0  0  0  0  0  0  0
   79.6125    2.1356    1.3821 C   0  0  0  0  0  0  0  0  0  0  0  0
   78.6522    3.0308    1.7169 C   0  0  0  0  0  0  0  0  0  0  0  0
   77.4186    2.5253    1.1947 C   0  0  0  0  0  0  0  0  0  0  0  0
   77.6100    1.2995    0.6044 N   0  0  0  0  0  0  0  0  0  0  0  0
   76.2252    3.2356    1.1978 C   0  0  0  0  0  0  0  0  0  0  0  0
   76.2188    4.6215    1.7171 C   0  0  0  0  0  0  0  0  0  0  0  0
   75.4081    4.9672    2.8009 C   0  0  0  0  0  0  0  0  0  0  0  0
   75.4022    6.2605    3.2917 C   0  0  0  0  0  0  0  0  0  0  0  0
   76.2064    7.2385    2.6992 C   0  0  0  0  0  0  0  0  0  0  0  0
   76.1999    8.5715    3.1995 C   0  0  0  0  0  0  0  0  0  0  0  0
   76.1921    9.6488    3.6036 N   0  0  0  0  0  0  0  0  0  0  0  0
   77.0173    6.8982    1.6124 C   0  0  0  0  0  0  0  0  0  0  0  0
   77.0237    5.6014    1.1312 C   0  0  0  0  0  0  0  0  0  0  0  0
   75.0396    2.6867    0.7332 C   0  0  0  0  0  0  0  0  0  0  0  0
   73.7975    3.3964    0.6721 C   0  0  0  0  0  0  0  0  0  0  0  0
   72.8464    2.4888    0.3448 C   0  0  0  0  0  0  0  0  0  0  0  0
   73.5131    1.2342    0.1950 C   0  0  0  0  0  0  0  0  0  0  0  0
   74.8599    1.3698    0.3764 N   0  0  0  0  0  0  0  0  0  0  0  0
   71.8121   -2.5944   -0.2623 H   0  0  0  0  0  0  0  0  0  0  0  0
   73.7221   -4.3776   -0.9361 H   0  0  0  0  0  0  0  0  0  0  0  0
   74.8593   -4.0724   -3.3493 H   0  0  0  0  0  0  0  0  0  0  0  0
   74.8636   -6.3648   -4.2648 H   0  0  0  0  0  0  0  0  0  0  0  0
   77.6858   -7.5539   -1.2580 H   0  0  0  0  0  0  0  0  0  0  0  0
   77.6697   -5.2624   -0.3410 H   0  0  0  0  0  0  0  0  0  0  0  0
   78.8185   -3.8342   -2.2605 H   0  0  0  0  0  0  0  0  0  0  0  0
   80.7119   -2.0692   -1.4970 H   0  0  0  0  0  0  0  0  0  0  0  0
   80.6702    2.1708    1.5876 H   0  0  0  0  0  0  0  0  0  0  0  0
   78.7586    3.9510    2.2676 H   0  0  0  0  0  0  0  0  0  0  0  0
   74.7926    4.2084    3.2707 H   0  0  0  0  0  0  0  0  0  0  0  0
   74.7757    6.5197    4.1370 H   0  0  0  0  0  0  0  0  0  0  0  0
   77.6395    7.6546    1.1487 H   0  0  0  0  0  0  0  0  0  0  0  0
   77.6449    5.3438    0.2809 H   0  0  0  0  0  0  0  0  0  0  0  0
   73.6797    4.4517    0.8567 H   0  0  0  0  0  0  0  0  0  0  0  0
   71.7872    2.6398    0.2131 H   0  0  0  0  0  0  0  0  0  0  0  0
  2  3  4  0  0  0  0
  3  4  1  0  0  0  0
  4  5  2  0  0  0  0
  5  6  4  0  0  0  0
  1  7  1  0  0  0  0
  3  7  4  0  0  0  0
  6  7  4  0  0  0  0
  6  8  4  0  0  0  0
  8  9  1  0  0  0  0
  9 10  4  0  0  0  0
 10 11  4  0  0  0  0
 11 12  4  0  0  0  0
 12 13  1  0  0  0  0
 13 14  3  0  0  0  0
 12 15  4  0  0  0  0
  9 16  4  0  0  0  0
 15 16  4  0  0  0  0
  8 17  4  0  0  0  0
 17 18  4  0  0  0  0
 18 19  2  0  0  0  0
  1 20  1  0  0  0  0
 17 20  4  0  0  0  0
 19 21  4  0  0  0  0
 20 21  4  0  0  0  0
 21 22  4  0  0  0  0
 22 23  4  0  0  0  0
 23 24  4  0  0  0  0
 24 25  2  0  0  0  0
 25 26  4  0  0  0  0
  1 27  1  0  0  0  0
 23 27  4  0  0  0  0
 26 27  4  0  0  0  0
 26 28  4  0  0  0  0
 28 29  1  0  0  0  0
 29 30  4  0  0  0  0
 30 31  4  0  0  0  0
 31 32  4  0  0  0  0
 32 33  1  0  0  0  0
 33 34  3  0  0  0  0
 32 35  4  0  0  0  0
 29 36  4  0  0  0  0
 35 36  4  0  0  0  0
 28 37  4  0  0  0  0
 37 38  4  0  0  0  0
 38 39  2  0  0  0  0
  2 40  4  0  0  0  0
 39 40  1  0  0  0  0
  1 41  1  0  0  0  0
 37 41  4  0  0  0  0
 40 41  4  0  0  0  0
  2 42  1  0  0  0  0
  4 43  1  0  0  0  0
  5 44  1  0  0  0  0
 10 45  1  0  0  0  0
 11 46  1  0  0  0  0
 15 47  1  0  0  0  0
 16 48  1  0  0  0  0
 18 49  1  0  0  0  0
 19 50  1  0  0  0  0
 24 51  1  0  0  0  0
 25 52  1  0  0  0  0
 30 53  1  0  0  0  0
 31 54  1  0  0  0  0
 35 55  1  0  0  0  0
 36 56  1  0  0  0  0
 38 57  1  0  0  0  0
 39 58  1  0  0  0  0
 60 61  4  0  0  0  0
 61 62  1  0  0  0  0
 62 63  2  0  0  0  0
 63 64  4  0  0  0  0
 59 65  1  0  0  0  0
 61 65  4  0  0  0  0
 64 65  4  0  0  0  0
 64 66  4  0  0  0  0
 66 67  1  0  0  0  0
 67 68  4  0  0  0  0
 68 69  4  0  0  0  0
 69 70  4  0  0  0  0
 70 71  1  0  0  0  0
 71 72  3  0  0  0  0
 70 73  4  0  0  0  0
 67 74  4  0  0  0  0
 73 74  4  0  0  0  0
 66 75  4  0  0  0  0
 75 76  4  0  0  0  0
 76 77  2  0  0  0  0
 59 78  1  0  0  0  0
 75 78  4  0  0  0  0
 77 79  4  0  0  0  0
 78 79  4  0  0  0  0
 79 80  4  0  0  0  0
 80 81  4  0  0  0  0
 81 82  4  0  0  0  0
 82 83  2  0  0  0  0
 83 84  4  0  0  0  0
 59 85  1  0  0  0  0
 81 85  4  0  0  0  0
 84 85  4  0  0  0  0
 84 86  4  0  0  0  0
 86 87  1  0  0  0  0
 87 88  4  0  0  0  0
 88 89  4  0  0  0  0
 89 90  4  0  0  0  0
 90 91  1  0  0  0  0
 91 92  3  0  0  0  0
 90 93  4  0  0  0  0
 87 94  4  0  0  0  0
 93 94  4  0  0  0  0
 86 95  4  0  0  0  0
 95 96  4  0  0  0  0
 96 97  2  0  0  0  0
 60 98  4  0  0  0  0
 97 98  1  0  0  0  0
 59 99  1  0  0  0  0
 95 99  4  0  0  0  0
 98 99  4  0  0  0  0
 60100  1  0  0  0  0
 62101  1  0  0  0  0
 63102  1  0  0  0  0
 68103  1  0  0  0  0
 69104  1  0  0  0  0
 73105  1  0  0  0  0
 74106  1  0  0  0  0
 76107  1  0  0  0  0
 77108  1  0  0  0  0
 82109  1  0  0  0  0
 83110  1  0  0  0  0
 88111  1  0  0  0  0
 89112  1  0  0  0  0
 93113  1  0  0  0  0
 94114  1  0  0  0  0
 96115  1  0  0  0  0
 97116  1  0  0  0  0
 22117  1  0  0  0  0
117118  3  0  0  0  0
119120  3  0  0  0  0
 80122  1  0  0  0  0
121122  3  0  0  0  0
118124  1  0  0  0  0
124125  4  0  0  0  0
125126  4  0  0  0  0
126127  2  0  0  0  0
127128  4  0  0  0  0
123129  1  0  0  0  0
125129  4  0  0  0  0
128129  4  0  0  0  0
128130  4  0  0  0  0
130131  1  0  0  0  0
131132  4  0  0  0  0
132133  4  0  0  0  0
133134  4  0  0  0  0
134135  1  0  0  0  0
135136  3  0  0  0  0
134137  4  0  0  0  0
131138  4  0  0  0  0
137138  4  0  0  0  0
130139  4  0  0  0  0
139140  4  0  0  0  0
140141  2  0  0  0  0
123142  1  0  0  0  0
139142  4  0  0  0  0
141143  4  0  0  0  0
142143  4  0  0  0  0
119144  1  0  0  0  0
143144  4  0  0  0  0
144145  4  0  0  0  0
145146  4  0  0  0  0
146147  2  0  0  0  0
147148  4  0  0  0  0
123149  1  0  0  0  0
145149  4  0  0  0  0
148149  4  0  0  0  0
148150  4  0  0  0  0
150151  1  0  0  0  0
151152  4  0  0  0  0
152153  4  0  0  0  0
153154  4  0  0  0  0
154155  1  0  0  0  0
155156  3  0  0  0  0
154157  4  0  0  0  0
151158  4  0  0  0  0
157158  4  0  0  0  0
150159  4  0  0  0  0
159160  4  0  0  0  0
160161  2  0  0  0  0
124162  4  0  0  0  0
161162  4  0  0  0  0
123163  1  0  0  0  0
159163  4  0  0  0  0
162163  4  0  0  0  0
126164  1  0  0  0  0
127165  1  0  0  0  0
132166  1  0  0  0  0
133167  1  0  0  0  0
137168  1  0  0  0  0
138169  1  0  0  0  0
140170  1  0  0  0  0
141171  1  0  0  0  0
146172  1  0  0  0  0
147173  1  0  0  0  0
152174  1  0  0  0  0
153175  1  0  0  0  0
157176  1  0  0  0  0
158177  1  0  0  0  0
160178  1  0  0  0  0
161179  1  0  0  0  0
120181  1  0  0  0  0
181182  4  0  0  0  0
182183  4  0  0  0  0
183184  2  0  0  0  0
184185  4  0  0  0  0
180186  1  0  0  0  0
182186  4  0  0  0  0
185186  4  0  0  0  0
185187  4  0  0  0  0
187188  1  0  0  0  0
188189  4  0  0  0  0
189190  4  0  0  0  0
190191  4  0  0  0  0
191192  1  0  0  0  0
192193  3  0  0  0  0
191194  4  0  0  0  0
188195  4  0  0  0  0
194195  4  0  0  0  0
187196  4  0  0  0  0
196197  4  0  0  0  0
197198  2  0  0  0  0
180199  1  0  0  0  0
196199  4  0  0  0  0
198200  4  0  0  0  0
199200  4  0  0  0  0
121201  1  0  0  0  0
200201  4  0  0  0  0
201202  4  0  0  0  0
202203  4  0  0  0  0
203204  2  0  0  0  0
204205  4  0  0  0  0
180206  1  0  0  0  0
202206  4  0  0  0  0
205206  4  0  0  0  0
205207  4  0  0  0  0
207208  1  0  0  0  0
208209  4  0  0  0  0
209210  4  0  0  0  0
210211  4  0  0  0  0
211212  1  0  0  0  0
212213  3  0  0  0  0
211214  4  0  0  0  0
208215  4  0  0  0  0
214215  4  0  0  0  0
207216  4  0  0  0  0
216217  4  0  0  0  0
217218  2  0  0  0  0
181219  4  0  0  0  0
218219  4  0  0  0  0
180220  1  0  0  0  0
216220  4  0  0  0  0
219220  4  0  0  0  0
183221  1  0  0  0  0
184222  1  0  0  0  0
189223  1  0  0  0  0
190224  1  0  0  0  0
194225  1  0  0  0  0
195226  1  0  0  0  0
197227  1  0  0  0  0
198228  1  0  0  0  0
203229  1  0  0  0  0
204230  1  0  0  0  0
209231  1  0  0  0  0
210232  1  0  0  0  0
214233  1  0  0  0  0
215234  1  0  0  0  0
217235  1  0  0  0  0
218236  1  0  0  0  0
M  END
