 xtb: 6.5.1 (b24c23e)
          07262218433D

222246  0     0  0            999 V2000
   11.6095   -0.3638   -0.1842 C   0  0  0  0  0  0  0  0  0  0  0  0
   12.4235   -1.4873   -0.1898 C   0  0  0  0  0  0  0  0  0  0  0  0
   11.9974   -2.8467   -0.2847 C   0  0  0  0  0  0  0  0  0  0  0  0
   13.1057   -3.6412   -0.2637 C   0  0  0  0  0  0  0  0  0  0  0  0
   14.2517   -2.7975   -0.1551 C   0  0  0  0  0  0  0  0  0  0  0  0
   13.7874   -1.5100   -0.1104 N   0  0  0  0  0  0  0  0  0  0  0  0
   15.5808   -3.1879   -0.1176 C   0  0  0  0  0  0  0  0  0  0  0  0
   16.6855   -2.3398   -0.0326 C   0  0  0  0  0  0  0  0  0  0  0  0
   18.0685   -2.7286   -0.0621 C   0  0  0  0  0  0  0  0  0  0  0  0
   18.7242   -1.5570    0.0230 C   0  0  0  0  0  0  0  0  0  0  0  0
   16.6017   -0.9864    0.0719 N   0  0  0  0  0  0  0  0  0  0  0  0
   17.8538   -0.4215    0.1163 C   0  0  0  0  0  0  0  0  0  0  0  0
   18.1353    0.8907    0.2396 C   0  0  0  0  0  0  0  0  0  0  0  0
   17.3837    2.0307    0.3119 C   0  0  0  0  0  0  0  0  0  0  0  0
   17.8016    3.3833    0.4786 C   0  0  0  0  0  0  0  0  0  0  0  0
   16.6903    4.1798    0.4672 C   0  0  0  0  0  0  0  0  0  0  0  0
   15.5510    3.3415    0.2966 C   0  0  0  0  0  0  0  0  0  0  0  0
   16.0095    2.0653    0.2057 N   0  0  0  0  0  0  0  0  0  0  0  0
   14.2046    3.6915    0.2318 C   0  0  0  0  0  0  0  0  0  0  0  0
   13.1478    2.8020    0.0944 C   0  0  0  0  0  0  0  0  0  0  0  0
   11.7514    3.2043    0.0291 C   0  0  0  0  0  0  0  0  0  0  0  0
   11.0329    2.0702   -0.0880 C   0  0  0  0  0  0  0  0  0  0  0  0
   11.9903    0.9727   -0.0919 C   0  0  0  0  0  0  0  0  0  0  0  0
   13.2492    1.4495    0.0148 N   0  0  0  0  0  0  0  0  0  0  0  0
   10.5444   -0.5593   -0.2593 H   0  0  0  0  0  0  0  0  0  0  0  0
   10.9672   -3.1573   -0.3601 H   0  0  0  0  0  0  0  0  0  0  0  0
   13.1453   -4.7176   -0.3186 H   0  0  0  0  0  0  0  0  0  0  0  0
   14.3778   -0.6893   -0.0345 H   0  0  0  0  0  0  0  0  0  0  0  0
   15.7755   -4.2530   -0.1780 H   0  0  0  0  0  0  0  0  0  0  0  0
   18.4626   -3.7272   -0.1404 H   0  0  0  0  0  0  0  0  0  0  0  0
   20.1412   -1.4002    0.0168 H   0  0  0  0  0  0  0  0  0  0  0  0
   18.8294    3.6896    0.5901 H   0  0  0  0  0  0  0  0  0  0  0  0
   16.6498    5.2528    0.5692 H   0  0  0  0  0  0  0  0  0  0  0  0
   15.4103    1.2554    0.0904 H   0  0  0  0  0  0  0  0  0  0  0  0
   13.9699    4.7480    0.3025 H   0  0  0  0  0  0  0  0  0  0  0  0
   11.4042    4.2250    0.0697 H   0  0  0  0  0  0  0  0  0  0  0  0
    9.9632    1.9518   -0.1642 H   0  0  0  0  0  0  0  0  0  0  0  0
  106.4789    0.3088   -0.2088 C   0  0  0  0  0  0  0  0  0  0  0  0
  105.6743    1.4274   -0.3704 C   0  0  0  0  0  0  0  0  0  0  0  0
  106.1165    2.7575   -0.6428 C   0  0  0  0  0  0  0  0  0  0  0  0
  105.0176    3.5601   -0.7343 C   0  0  0  0  0  0  0  0  0  0  0  0
  103.8614    2.7512   -0.5213 C   0  0  0  0  0  0  0  0  0  0  0  0
  104.3099    1.4760   -0.3038 N   0  0  0  0  0  0  0  0  0  0  0  0
  102.5362    3.1594   -0.5410 C   0  0  0  0  0  0  0  0  0  0  0  0
  101.4227    2.3427   -0.3506 C   0  0  0  0  0  0  0  0  0  0  0  0
  100.0391    2.7213   -0.4324 C   0  0  0  0  0  0  0  0  0  0  0  0
   99.3769    1.5747   -0.2013 C   0  0  0  0  0  0  0  0  0  0  0  0
  101.5006    1.0129   -0.0717 N   0  0  0  0  0  0  0  0  0  0  0  0
  100.2447    0.4560    0.0407 C   0  0  0  0  0  0  0  0  0  0  0  0
  100.0012   -0.8294    0.3266 C   0  0  0  0  0  0  0  0  0  0  0  0
  100.7159   -1.9703    0.5517 C   0  0  0  0  0  0  0  0  0  0  0  0
  100.2775   -3.2834    0.8884 C   0  0  0  0  0  0  0  0  0  0  0  0
  101.3789   -4.0886    0.9899 C   0  0  0  0  0  0  0  0  0  0  0  0
  102.5305   -3.2946    0.7226 C   0  0  0  0  0  0  0  0  0  0  0  0
  102.0890   -2.0352    0.4610 N   0  0  0  0  0  0  0  0  0  0  0  0
  103.8749   -3.6567    0.7173 C   0  0  0  0  0  0  0  0  0  0  0  0
  104.9350   -2.7933    0.4745 C   0  0  0  0  0  0  0  0  0  0  0  0
  106.3314   -3.1993    0.4754 C   0  0  0  0  0  0  0  0  0  0  0  0
  107.0512   -2.0897    0.2156 C   0  0  0  0  0  0  0  0  0  0  0  0
  106.0947   -1.0032    0.0579 C   0  0  0  0  0  0  0  0  0  0  0  0
  104.8349   -1.4630    0.2163 N   0  0  0  0  0  0  0  0  0  0  0  0
  107.5456    0.4882   -0.3016 H   0  0  0  0  0  0  0  0  0  0  0  0
  107.1506    3.0438   -0.7524 H   0  0  0  0  0  0  0  0  0  0  0  0
  104.9910    4.6200   -0.9321 H   0  0  0  0  0  0  0  0  0  0  0  0
  103.7079    0.6807   -0.1232 H   0  0  0  0  0  0  0  0  0  0  0  0
  102.3553    4.2097   -0.7411 H   0  0  0  0  0  0  0  0  0  0  0  0
   99.6448    3.7013   -0.6387 H   0  0  0  0  0  0  0  0  0  0  0  0
   97.5905    1.4219   -0.2000 H   0  0  0  0  0  0  0  0  0  0  0  0
   99.2451   -3.5599    1.0298 H   0  0  0  0  0  0  0  0  0  0  0  0
  101.4026   -5.1396    1.2307 H   0  0  0  0  0  0  0  0  0  0  0  0
  102.7019   -1.2554    0.2488 H   0  0  0  0  0  0  0  0  0  0  0  0
  104.1049   -4.6954    0.9277 H   0  0  0  0  0  0  0  0  0  0  0  0
  106.6781   -4.2052    0.6539 H   0  0  0  0  0  0  0  0  0  0  0  0
  108.1217   -1.9818    0.1342 H   0  0  0  0  0  0  0  0  0  0  0  0
   21.2819   -1.2740    0.0033 C   0  0  0  0  0  0  0  0  0  0  0  0
   22.4859   -1.1275   -0.0193 C   0  0  0  0  0  0  0  0  0  0  0  0
   23.8321   -0.9716   -0.0391 C   0  0  0  0  0  0  0  0  0  0  0  0
   25.0509   -0.8332   -0.0544 C   0  0  0  0  0  0  0  0  0  0  0  0
   26.3838   -0.6908   -0.0675 C   0  0  0  0  0  0  0  0  0  0  0  0
   27.6086   -0.5678   -0.0764 C   0  0  0  0  0  0  0  0  0  0  0  0
   28.9410   -0.4496   -0.0821 C   0  0  0  0  0  0  0  0  0  0  0  0
   30.1679   -0.3526   -0.0826 C   0  0  0  0  0  0  0  0  0  0  0  0
   31.5075   -0.2672   -0.0794 C   0  0  0  0  0  0  0  0  0  0  0  0
   32.7306   -0.2035   -0.0731 C   0  0  0  0  0  0  0  0  0  0  0  0
   42.5117    0.0709    0.0074 C   0  0  0  0  0  0  0  0  0  0  0  0
   43.7370    0.0897    0.0113 C   0  0  0  0  0  0  0  0  0  0  0  0
   45.0775    0.1062    0.0146 C   0  0  0  0  0  0  0  0  0  0  0  0
   46.3097    0.1100    0.0155 C   0  0  0  0  0  0  0  0  0  0  0  0
   47.6441    0.1092    0.0150 C   0  0  0  0  0  0  0  0  0  0  0  0
   48.8780    0.1021    0.0144 C   0  0  0  0  0  0  0  0  0  0  0  0
   50.2123    0.0916    0.0130 C   0  0  0  0  0  0  0  0  0  0  0  0
   51.4445    0.0783    0.0103 C   0  0  0  0  0  0  0  0  0  0  0  0
   52.7849    0.0649    0.0085 C   0  0  0  0  0  0  0  0  0  0  0  0
   54.0103    0.0495    0.0066 C   0  0  0  0  0  0  0  0  0  0  0  0
   63.7922   -0.0595    0.0139 C   0  0  0  0  0  0  0  0  0  0  0  0
   65.0177   -0.0732    0.0170 C   0  0  0  0  0  0  0  0  0  0  0  0
   66.3581   -0.0847    0.0198 C   0  0  0  0  0  0  0  0  0  0  0  0
   67.5903   -0.0954    0.0222 C   0  0  0  0  0  0  0  0  0  0  0  0
   68.9246   -0.1029    0.0234 C   0  0  0  0  0  0  0  0  0  0  0  0
   70.1585   -0.1070    0.0230 C   0  0  0  0  0  0  0  0  0  0  0  0
   71.4928   -0.1046    0.0215 C   0  0  0  0  0  0  0  0  0  0  0  0
   72.7250   -0.0975    0.0182 C   0  0  0  0  0  0  0  0  0  0  0  0
   74.0654   -0.0788    0.0122 C   0  0  0  0  0  0  0  0  0  0  0  0
   75.2907   -0.0584    0.0045 C   0  0  0  0  0  0  0  0  0  0  0  0
   85.0705    0.2145   -0.0897 C   0  0  0  0  0  0  0  0  0  0  0  0
   86.2936    0.2762   -0.1029 C   0  0  0  0  0  0  0  0  0  0  0  0
   87.6332    0.3601   -0.1160 C   0  0  0  0  0  0  0  0  0  0  0  0
   88.8601    0.4554   -0.1275 C   0  0  0  0  0  0  0  0  0  0  0  0
   90.1925    0.5732   -0.1399 C   0  0  0  0  0  0  0  0  0  0  0  0
   91.4173    0.6962   -0.1515 C   0  0  0  0  0  0  0  0  0  0  0  0
   92.7500    0.8405   -0.1629 C   0  0  0  0  0  0  0  0  0  0  0  0
   93.9684    0.9825   -0.1728 C   0  0  0  0  0  0  0  0  0  0  0  0
   95.3132    1.1434   -0.1833 C   0  0  0  0  0  0  0  0  0  0  0  0
   96.5155    1.2960   -0.1936 C   0  0  0  0  0  0  0  0  0  0  0  0
   34.1329   -0.1536   -0.0624 C   0  0  0  0  0  0  0  0  0  0  0  0
   34.7342    1.1193   -0.0818 C   0  0  0  0  0  0  0  0  0  0  0  0
   34.0812    2.3801   -0.1131 C   0  0  0  0  0  0  0  0  0  0  0  0
   35.0450    3.3513   -0.1218 C   0  0  0  0  0  0  0  0  0  0  0  0
   36.3137    2.7094   -0.0961 C   0  0  0  0  0  0  0  0  0  0  0  0
   36.0742    1.3627   -0.0727 N   0  0  0  0  0  0  0  0  0  0  0  0
   37.5611    3.3242   -0.0948 C   0  0  0  0  0  0  0  0  0  0  0  0
   38.8086    2.7196   -0.0709 C   0  0  0  0  0  0  0  0  0  0  0  0
   40.0544    3.4660   -0.0737 C   0  0  0  0  0  0  0  0  0  0  0  0
   41.0465    2.5520   -0.0480 C   0  0  0  0  0  0  0  0  0  0  0  0
   39.0625    1.3828   -0.0432 N   0  0  0  0  0  0  0  0  0  0  0  0
   40.4024    1.2515   -0.0291 C   0  0  0  0  0  0  0  0  0  0  0  0
   41.1102    0.0317    0.0001 C   0  0  0  0  0  0  0  0  0  0  0  0
   40.5076   -1.2415    0.0215 C   0  0  0  0  0  0  0  0  0  0  0  0
   41.1609   -2.5020    0.0536 C   0  0  0  0  0  0  0  0  0  0  0  0
   40.1973   -3.4735    0.0658 C   0  0  0  0  0  0  0  0  0  0  0  0
   38.9288   -2.8317    0.0411 C   0  0  0  0  0  0  0  0  0  0  0  0
   39.1680   -1.4849    0.0152 N   0  0  0  0  0  0  0  0  0  0  0  0
   37.6816   -3.4464    0.0419 C   0  0  0  0  0  0  0  0  0  0  0  0
   36.4345   -2.8414    0.0164 C   0  0  0  0  0  0  0  0  0  0  0  0
   35.1888   -3.5878    0.0190 C   0  0  0  0  0  0  0  0  0  0  0  0
   34.1968   -2.6739   -0.0104 C   0  0  0  0  0  0  0  0  0  0  0  0
   34.8409   -1.3732   -0.0306 C   0  0  0  0  0  0  0  0  0  0  0  0
   36.1809   -1.5047   -0.0141 N   0  0  0  0  0  0  0  0  0  0  0  0
   33.0115    2.5144   -0.1269 H   0  0  0  0  0  0  0  0  0  0  0  0
   34.9006    4.4197   -0.1440 H   0  0  0  0  0  0  0  0  0  0  0  0
   36.7888    0.6427   -0.0511 H   0  0  0  0  0  0  0  0  0  0  0  0
   37.5459    4.4094   -0.1156 H   0  0  0  0  0  0  0  0  0  0  0  0
   40.1262    4.5421   -0.0932 H   0  0  0  0  0  0  0  0  0  0  0  0
   42.1131    2.7111   -0.0415 H   0  0  0  0  0  0  0  0  0  0  0  0
   42.2306   -2.6367    0.0657 H   0  0  0  0  0  0  0  0  0  0  0  0
   40.3419   -4.5418    0.0895 H   0  0  0  0  0  0  0  0  0  0  0  0
   38.4532   -0.7650   -0.0062 H   0  0  0  0  0  0  0  0  0  0  0  0
   37.6965   -4.5316    0.0648 H   0  0  0  0  0  0  0  0  0  0  0  0
   35.1170   -4.6639    0.0406 H   0  0  0  0  0  0  0  0  0  0  0  0
   33.1304   -2.8339   -0.0183 H   0  0  0  0  0  0  0  0  0  0  0  0
   55.4123    0.0375    0.0052 C   0  0  0  0  0  0  0  0  0  0  0  0
   56.0633    1.2867   -0.0043 C   0  0  0  0  0  0  0  0  0  0  0  0
   55.4588    2.5716   -0.0140 C   0  0  0  0  0  0  0  0  0  0  0  0
   56.4591    3.5055   -0.0213 C   0  0  0  0  0  0  0  0  0  0  0  0
   57.7021    2.8152   -0.0160 C   0  0  0  0  0  0  0  0  0  0  0  0
   57.4114    1.4783   -0.0059 N   0  0  0  0  0  0  0  0  0  0  0  0
   58.9721    3.3815   -0.0197 C   0  0  0  0  0  0  0  0  0  0  0  0
   60.1951    2.7287   -0.0135 C   0  0  0  0  0  0  0  0  0  0  0  0
   61.4690    3.4258   -0.0172 C   0  0  0  0  0  0  0  0  0  0  0  0
   62.4247    2.4735   -0.0083 C   0  0  0  0  0  0  0  0  0  0  0  0
   60.3966    1.3826   -0.0029 N   0  0  0  0  0  0  0  0  0  0  0  0
   61.7302    1.1989    0.0005 C   0  0  0  0  0  0  0  0  0  0  0  0
   62.3903   -0.0479    0.0108 C   0  0  0  0  0  0  0  0  0  0  0  0
   61.7393   -1.2971    0.0181 C   0  0  0  0  0  0  0  0  0  0  0  0
   62.3438   -2.5820    0.0273 C   0  0  0  0  0  0  0  0  0  0  0  0
   61.3436   -3.5159    0.0317 C   0  0  0  0  0  0  0  0  0  0  0  0
   60.1006   -2.8256    0.0255 C   0  0  0  0  0  0  0  0  0  0  0  0
   60.3912   -1.4887    0.0173 N   0  0  0  0  0  0  0  0  0  0  0  0
   58.8304   -3.3919    0.0278 C   0  0  0  0  0  0  0  0  0  0  0  0
   57.6075   -2.7391    0.0230 C   0  0  0  0  0  0  0  0  0  0  0  0
   56.3336   -3.4362    0.0273 C   0  0  0  0  0  0  0  0  0  0  0  0
   55.3779   -2.4839    0.0215 C   0  0  0  0  0  0  0  0  0  0  0  0
   56.0723   -1.2093    0.0133 C   0  0  0  0  0  0  0  0  0  0  0  0
   57.4060   -1.3930    0.0144 N   0  0  0  0  0  0  0  0  0  0  0  0
   54.3950    2.7472   -0.0153 H   0  0  0  0  0  0  0  0  0  0  0  0
   56.3554    4.5788   -0.0295 H   0  0  0  0  0  0  0  0  0  0  0  0
   58.0982    0.7314   -0.0001 H   0  0  0  0  0  0  0  0  0  0  0  0
   58.9988    4.4667   -0.0280 H   0  0  0  0  0  0  0  0  0  0  0  0
   61.5827    4.4984   -0.0253 H   0  0  0  0  0  0  0  0  0  0  0  0
   63.4966    2.5910   -0.0076 H   0  0  0  0  0  0  0  0  0  0  0  0
   63.4076   -2.7575    0.0300 H   0  0  0  0  0  0  0  0  0  0  0  0
   61.4472   -4.5892    0.0387 H   0  0  0  0  0  0  0  0  0  0  0  0
   59.7044   -0.7419    0.0115 H   0  0  0  0  0  0  0  0  0  0  0  0
   58.8038   -4.4771    0.0347 H   0  0  0  0  0  0  0  0  0  0  0  0
   56.2199   -4.5089    0.0340 H   0  0  0  0  0  0  0  0  0  0  0  0
   54.3059   -2.6014    0.0222 H   0  0  0  0  0  0  0  0  0  0  0  0
   76.6922   -0.0189   -0.0060 C   0  0  0  0  0  0  0  0  0  0  0  0
   77.2944    1.2546   -0.0183 C   0  0  0  0  0  0  0  0  0  0  0  0
   76.6407    2.5153   -0.0191 C   0  0  0  0  0  0  0  0  0  0  0  0
   77.6040    3.4871   -0.0333 C   0  0  0  0  0  0  0  0  0  0  0  0
   78.8727    2.8452   -0.0417 C   0  0  0  0  0  0  0  0  0  0  0  0
   78.6339    1.4981   -0.0319 N   0  0  0  0  0  0  0  0  0  0  0  0
   80.1197    3.4600   -0.0574 C   0  0  0  0  0  0  0  0  0  0  0  0
   81.3669    2.8544   -0.0667 C   0  0  0  0  0  0  0  0  0  0  0  0
   82.6126    3.6005   -0.0837 C   0  0  0  0  0  0  0  0  0  0  0  0
   83.6045    2.6860   -0.0889 C   0  0  0  0  0  0  0  0  0  0  0  0
   81.6202    1.5174   -0.0619 N   0  0  0  0  0  0  0  0  0  0  0  0
   82.9603    1.3853   -0.0750 C   0  0  0  0  0  0  0  0  0  0  0  0
   83.6682    0.1653   -0.0753 C   0  0  0  0  0  0  0  0  0  0  0  0
   83.0670   -1.1077   -0.0616 C   0  0  0  0  0  0  0  0  0  0  0  0
   83.7204   -2.3686   -0.0608 C   0  0  0  0  0  0  0  0  0  0  0  0
   82.7569   -3.3402   -0.0451 C   0  0  0  0  0  0  0  0  0  0  0  0
   81.4881   -2.6982   -0.0359 C   0  0  0  0  0  0  0  0  0  0  0  0
   81.7271   -1.3513   -0.0464 N   0  0  0  0  0  0  0  0  0  0  0  0
   80.2408   -3.3131   -0.0196 C   0  0  0  0  0  0  0  0  0  0  0  0
   78.9934   -2.7081   -0.0110 C   0  0  0  0  0  0  0  0  0  0  0  0
   77.7475   -3.4541    0.0052 C   0  0  0  0  0  0  0  0  0  0  0  0
   76.7555   -2.5396    0.0088 C   0  0  0  0  0  0  0  0  0  0  0  0
   77.3999   -1.2391   -0.0050 C   0  0  0  0  0  0  0  0  0  0  0  0
   78.7397   -1.3709   -0.0165 N   0  0  0  0  0  0  0  0  0  0  0  0
   75.5710    2.6498   -0.0099 H   0  0  0  0  0  0  0  0  0  0  0  0
   77.4589    4.5556   -0.0379 H   0  0  0  0  0  0  0  0  0  0  0  0
   79.3491    0.7782   -0.0348 H   0  0  0  0  0  0  0  0  0  0  0  0
   80.1047    4.5454   -0.0634 H   0  0  0  0  0  0  0  0  0  0  0  0
   82.6845    4.6767   -0.0905 H   0  0  0  0  0  0  0  0  0  0  0  0
   84.6709    2.8455   -0.1008 H   0  0  0  0  0  0  0  0  0  0  0  0
   84.7902   -2.5029   -0.0710 H   0  0  0  0  0  0  0  0  0  0  0  0
   82.9017   -4.4088   -0.0402 H   0  0  0  0  0  0  0  0  0  0  0  0
   81.0120   -0.6314   -0.0434 H   0  0  0  0  0  0  0  0  0  0  0  0
   80.2561   -4.3985   -0.0134 H   0  0  0  0  0  0  0  0  0  0  0  0
   77.6755   -4.5304    0.0124 H   0  0  0  0  0  0  0  0  0  0  0  0
   75.6889   -2.6983    0.0197 H   0  0  0  0  0  0  0  0  0  0  0  0
  1  2  4  0  0  0  0
  2  3  4  0  0  0  0
  3  4  2  0  0  0  0
  4  5  4  0  0  0  0
  2  6  4  0  0  0  0
  5  6  4  0  0  0  0
  5  7  4  0  0  0  0
  7  8  4  0  0  0  0
  8  9  1  0  0  0  0
  9 10  2  0  0  0  0
  8 11  4  0  0  0  0
 10 12  1  0  0  0  0
 11 12  4  0  0  0  0
 10 13  1  0  0  0  0
 12 13  2  0  0  0  0
 13 14  4  0  0  0  0
 14 15  4  0  0  0  0
 15 16  2  0  0  0  0
 16 17  4  0  0  0  0
 14 18  1  0  0  0  0
 17 18  4  0  0  0  0
 17 19  4  0  0  0  0
 19 20  4  0  0  0  0
 20 21  1  0  0  0  0
 21 22  2  0  0  0  0
  1 23  4  0  0  0  0
 22 23  1  0  0  0  0
 20 24  4  0  0  0  0
 23 24  4  0  0  0  0
  1 25  1  0  0  0  0
  3 26  1  0  0  0  0
  4 27  1  0  0  0  0
  6 28  1  0  0  0  0
  7 29  1  0  0  0  0
  9 30  1  0  0  0  0
 15 32  1  0  0  0  0
 16 33  1  0  0  0  0
 18 34  1  0  0  0  0
 19 35  1  0  0  0  0
 21 36  1  0  0  0  0
 22 37  1  0  0  0  0
 38 39  4  0  0  0  0
 39 40  4  0  0  0  0
 40 41  2  0  0  0  0
 41 42  4  0  0  0  0
 39 43  4  0  0  0  0
 42 43  4  0  0  0  0
 42 44  4  0  0  0  0
 44 45  4  0  0  0  0
 45 46  1  0  0  0  0
 46 47  2  0  0  0  0
 45 48  4  0  0  0  0
 47 49  1  0  0  0  0
 48 49  4  0  0  0  0
 47 50  1  0  0  0  0
 49 50  2  0  0  0  0
 50 51  4  0  0  0  0
 51 52  4  0  0  0  0
 52 53  2  0  0  0  0
 53 54  4  0  0  0  0
 51 55  1  0  0  0  0
 54 55  4  0  0  0  0
 54 56  4  0  0  0  0
 56 57  4  0  0  0  0
 57 58  1  0  0  0  0
 58 59  2  0  0  0  0
 38 60  4  0  0  0  0
 59 60  1  0  0  0  0
 57 61  4  0  0  0  0
 60 61  4  0  0  0  0
 38 62  1  0  0  0  0
 40 63  1  0  0  0  0
 41 64  1  0  0  0  0
 43 65  1  0  0  0  0
 44 66  1  0  0  0  0
 46 67  1  0  0  0  0
 52 69  1  0  0  0  0
 53 70  1  0  0  0  0
 55 71  1  0  0  0  0
 56 72  1  0  0  0  0
 58 73  1  0  0  0  0
 59 74  1  0  0  0  0
 31 75  1  0  0  0  0
 75 76  3  0  0  0  0
 76 77  4  0  0  0  0
 77 78  3  0  0  0  0
 78 79  4  0  0  0  0
 79 80  3  0  0  0  0
 80 81  4  0  0  0  0
 81 82  3  0  0  0  0
 82 83  4  0  0  0  0
 83 84  3  0  0  0  0
 85 86  3  0  0  0  0
 86 87  4  0  0  0  0
 87 88  3  0  0  0  0
 88 89  4  0  0  0  0
 89 90  3  0  0  0  0
 90 91  4  0  0  0  0
 91 92  3  0  0  0  0
 92 93  4  0  0  0  0
 93 94  3  0  0  0  0
 95 96  3  0  0  0  0
 96 97  4  0  0  0  0
 97 98  3  0  0  0  0
 98 99  4  0  0  0  0
 99100  3  0  0  0  0
100101  4  0  0  0  0
101102  3  0  0  0  0
102103  4  0  0  0  0
103104  3  0  0  0  0
105106  3  0  0  0  0
106107  4  0  0  0  0
107108  3  0  0  0  0
108109  4  0  0  0  0
109110  3  0  0  0  0
110111  4  0  0  0  0
111112  3  0  0  0  0
112113  4  0  0  0  0
 68114  1  0  0  0  0
113114  3  0  0  0  0
 84115  4  0  0  0  0
115116  4  0  0  0  0
116117  4  0  0  0  0
117118  2  0  0  0  0
118119  4  0  0  0  0
116120  4  0  0  0  0
119120  4  0  0  0  0
119121  4  0  0  0  0
121122  4  0  0  0  0
122123  1  0  0  0  0
123124  2  0  0  0  0
122125  4  0  0  0  0
124126  1  0  0  0  0
125126  4  0  0  0  0
 85127  4  0  0  0  0
126127  4  0  0  0  0
127128  4  0  0  0  0
128129  4  0  0  0  0
129130  2  0  0  0  0
130131  4  0  0  0  0
128132  4  0  0  0  0
131132  4  0  0  0  0
131133  4  0  0  0  0
133134  4  0  0  0  0
134135  1  0  0  0  0
135136  2  0  0  0  0
115137  4  0  0  0  0
136137  1  0  0  0  0
134138  4  0  0  0  0
137138  4  0  0  0  0
117139  1  0  0  0  0
118140  1  0  0  0  0
120141  1  0  0  0  0
121142  1  0  0  0  0
123143  1  0  0  0  0
124144  1  0  0  0  0
129145  1  0  0  0  0
130146  1  0  0  0  0
132147  1  0  0  0  0
133148  1  0  0  0  0
135149  1  0  0  0  0
136150  1  0  0  0  0
 94151  4  0  0  0  0
151152  4  0  0  0  0
152153  4  0  0  0  0
153154  2  0  0  0  0
154155  4  0  0  0  0
152156  4  0  0  0  0
155156  4  0  0  0  0
155157  4  0  0  0  0
157158  4  0  0  0  0
158159  1  0  0  0  0
159160  2  0  0  0  0
158161  4  0  0  0  0
160162  1  0  0  0  0
161162  4  0  0  0  0
 95163  4  0  0  0  0
162163  4  0  0  0  0
163164  4  0  0  0  0
164165  4  0  0  0  0
165166  2  0  0  0  0
166167  4  0  0  0  0
164168  4  0  0  0  0
167168  4  0  0  0  0
167169  4  0  0  0  0
169170  4  0  0  0  0
170171  1  0  0  0  0
171172  2  0  0  0  0
151173  4  0  0  0  0
172173  1  0  0  0  0
170174  4  0  0  0  0
173174  4  0  0  0  0
153175  1  0  0  0  0
154176  1  0  0  0  0
156177  1  0  0  0  0
157178  1  0  0  0  0
159179  1  0  0  0  0
160180  1  0  0  0  0
165181  1  0  0  0  0
166182  1  0  0  0  0
168183  1  0  0  0  0
169184  1  0  0  0  0
171185  1  0  0  0  0
172186  1  0  0  0  0
104187  4  0  0  0  0
187188  4  0  0  0  0
188189  4  0  0  0  0
189190  2  0  0  0  0
190191  4  0  0  0  0
188192  4  0  0  0  0
191192  4  0  0  0  0
191193  4  0  0  0  0
193194  4  0  0  0  0
194195  1  0  0  0  0
195196  2  0  0  0  0
194197  4  0  0  0  0
196198  1  0  0  0  0
197198  4  0  0  0  0
105199  4  0  0  0  0
198199  4  0  0  0  0
199200  4  0  0  0  0
200201  4  0  0  0  0
201202  2  0  0  0  0
202203  4  0  0  0  0
200204  4  0  0  0  0
203204  4  0  0  0  0
203205  4  0  0  0  0
205206  4  0  0  0  0
206207  1  0  0  0  0
207208  2  0  0  0  0
187209  4  0  0  0  0
208209  1  0  0  0  0
206210  4  0  0  0  0
209210  4  0  0  0  0
189211  1  0  0  0  0
190212  1  0  0  0  0
192213  1  0  0  0  0
193214  1  0  0  0  0
195215  1  0  0  0  0
196216  1  0  0  0  0
201217  1  0  0  0  0
202218  1  0  0  0  0
204219  1  0  0  0  0
205220  1  0  0  0  0
207221  1  0  0  0  0
208222  1  0  0  0  0
M  END
