606

C 108.028231 -0.044559 -0.175551
C 108.760546 -1.409654 0.002278
C 108.160464 -2.647772 0.026047
C 109.183852 -3.600621 0.268495
C 110.373514 -2.909533 0.393228
N 110.110508 -1.580667 0.174024
C 111.790649 -3.520955 0.750784
C 111.823450 -4.907761 1.266619
C 112.124839 -5.972211 0.405968
C 112.149799 -7.282356 0.886805
C 111.868450 -7.521800 2.239021
N 111.892142 -8.896599 2.750397
O 112.161592 -9.810156 1.954770
O 111.639420 -9.076714 3.951949
C 111.564064 -6.465649 3.108870
C 111.542581 -5.159794 2.616096
C 112.921511 -2.774951 0.633157
C 114.220950 -3.287222 1.018219
C 115.123838 -2.334644 0.816867
N 113.121364 -1.493461 0.194180
C 114.450068 -1.168345 0.281667
C 115.118459 -0.026533 -0.031497
C 114.342829 1.216523 -0.638722
C 114.882914 2.205120 -1.437499
C 113.856977 3.145626 -1.705391
C 112.717777 2.699686 -1.069886
N 113.008779 1.496873 -0.471366
C 111.309661 3.426241 -1.048955
C 111.283934 4.889288 -1.257547
C 110.922406 5.420249 -2.503526
C 110.907161 6.801419 -2.704685
C 111.260169 7.651755 -1.647817
N 111.245957 9.104331 -1.852415
O 110.931410 9.532081 -2.974236
O 111.550021 9.831772 -0.894059
C 111.626852 7.132839 -0.398536
C 111.637728 5.749616 -0.210021
C 110.181166 2.707144 -0.818434
C 108.858782 3.306238 -0.773223
C 107.971566 2.342778 -0.543350
C 108.692921 1.100049 -0.420608
N 110.014967 1.371103 -0.585618
H 106.949553 -0.029631 -0.074870
H 107.106295 -2.841406 -0.100046
H 109.059544 -4.668280 0.366145
H 110.806523 -0.839624 0.145118
H 112.343907 -5.760078 -0.639395
H 112.389499 -8.088929 0.199635
H 111.344597 -6.633241 4.159594
H 111.311078 -4.322684 3.272955
H 114.431873 -4.264738 1.412774
H 116.174413 -2.435044 1.020059
H 115.904994 2.253464 -1.781511
H 113.942716 4.047773 -2.291693
H 112.326083 0.887483 -0.028483
H 110.649153 4.739090 -3.308083
H 110.619376 7.186676 -3.678807
H 111.903677 7.777201 0.431206
H 111.918296 5.323973 0.752211
H 108.627858 4.348047 -0.901157
H 106.907062 2.462656 -0.453474
C 260.527265 -0.085007 -0.164377
C 259.794950 1.177806 -0.712474
C 260.395032 2.252568 -1.327608
C 259.371644 3.194758 -1.608641
C 258.181981 2.665688 -1.146855
N 258.444988 1.412729 -0.652863
C 256.764847 3.373950 -1.153845
C 256.732045 4.828896 -1.423007
C 256.430656 5.300637 -2.708010
C 256.405696 6.671827 -2.967858
C 256.687045 7.571419 -1.930286
N 256.663354 9.013772 -2.197112
O 256.393904 9.389392 -3.348858
O 256.916076 9.785111 -1.258387
C 256.991431 7.111523 -0.641648
C 257.012914 5.737886 -0.394248
C 255.633985 2.673347 -0.871865
C 254.334545 3.310634 -0.804354
C 253.431657 2.389772 -0.488192
N 255.434131 1.348235 -0.590801
C 254.105428 1.114126 -0.348836
C 253.437036 -0.026533 -0.031497
C 254.212666 -1.405023 0.085446
C 253.672581 -2.663459 -0.092617
C 254.698518 -3.608118 0.160244
C 255.837719 -2.899201 0.476734
N 255.546716 -1.559716 0.372977
C 257.245835 -3.511991 0.867642
C 257.271561 -4.874658 1.439617
C 257.633090 -5.969900 0.642856
C 257.648335 -7.258485 1.179182
C 257.295326 -7.445752 2.522674
N 257.309539 -8.797383 3.092702
O 257.624085 -9.740317 2.349515
O 257.005474 -8.929748 4.288569
C 256.928644 -6.359153 3.328452
C 256.917767 -5.075296 2.780222
C 258.374329 -2.776530 0.696360
C 259.696713 -3.267469 1.042678
C 260.583930 -2.322626 0.745408
C 259.862575 -1.193105 0.212846
N 258.540528 -1.510426 0.210367
H 261.605943 -0.046138 -0.070310
H 261.449201 2.354021 -1.535216
H 259.495951 4.161154 -2.072872
H 257.748973 0.761924 -0.297289
H 256.211588 4.581992 -3.496259
H 256.165997 7.011305 -3.971610
H 257.210898 7.794693 0.174064
H 257.244417 5.356643 0.599166
H 254.123622 4.352072 -0.967509
H 252.381082 2.580235 -0.365347
H 252.650501 -2.881532 -0.363034
H 254.612779 -4.683298 0.120153
H 256.229412 -0.809400 0.440259
H 257.906342 -5.798309 -0.397263
H 257.936120 -8.089136 0.540939
H 256.651819 -6.486237 4.371296
H 256.637199 -4.216088 3.387530
H 259.927638 -4.227225 1.467652
H 261.648433 -2.379373 0.884074
C 117.314675 -0.011843 -0.021221
C 118.772901 -0.033679 -0.039095
C 119.906829 -0.054433 -0.040585
C 121.268211 -0.067023 -0.042777
C 122.542430 -0.056716 -0.047542
C 123.730892 -0.037918 -0.053698
C 125.083253 -0.013134 -0.037830
C 126.183521 -0.011843 -0.021221
C 135.162284 -0.011843 -0.021221
C 136.620510 -0.033679 -0.039095
C 137.754438 -0.054433 -0.040585
C 139.115820 -0.067023 -0.042777
C 140.390039 -0.056716 -0.047542
C 141.578501 -0.037918 -0.053698
C 142.930862 -0.013134 -0.037830
C 144.031130 -0.011843 -0.021221
C 153.009893 -0.011843 -0.021221
C 154.468119 -0.033679 -0.039095
C 155.602047 -0.054433 -0.040585
C 156.963429 -0.067023 -0.042777
C 158.237648 -0.056716 -0.047542
C 159.426110 -0.037918 -0.053698
C 160.778471 -0.013134 -0.037830
C 161.878739 -0.011843 -0.021221
C 170.857502 -0.011843 -0.021221
C 172.315728 -0.033679 -0.039095
C 173.449656 -0.054433 -0.040585
C 174.811038 -0.067023 -0.042777
C 176.085257 -0.056716 -0.047542
C 177.273719 -0.037918 -0.053698
C 178.626080 -0.013134 -0.037830
C 179.726348 -0.011843 -0.021221
C 188.705111 -0.011843 -0.021221
C 190.163337 -0.033679 -0.039095
C 191.297265 -0.054433 -0.040585
C 192.658647 -0.067023 -0.042777
C 193.932866 -0.056716 -0.047542
C 195.121328 -0.037918 -0.053698
C 196.473689 -0.013134 -0.037830
C 197.573957 -0.011843 -0.021221
C 206.552720 -0.011843 -0.021221
C 208.010946 -0.033679 -0.039095
C 209.144875 -0.054433 -0.040585
C 210.506256 -0.067023 -0.042777
C 211.780475 -0.056716 -0.047542
C 212.968937 -0.037918 -0.053698
C 214.321298 -0.013134 -0.037830
C 215.421566 -0.011843 -0.021221
C 224.400329 -0.011843 -0.021221
C 225.858555 -0.033679 -0.039095
C 226.992484 -0.054433 -0.040585
C 228.353865 -0.067023 -0.042777
C 229.628084 -0.056716 -0.047542
C 230.816547 -0.037918 -0.053698
C 232.168907 -0.013134 -0.037830
C 233.269175 -0.011843 -0.021221
C 242.247938 -0.011843 -0.021221
C 243.706164 -0.033679 -0.039095
C 244.840093 -0.054433 -0.040585
C 246.201474 -0.067023 -0.042777
C 247.475693 -0.056716 -0.047542
C 248.664156 -0.037918 -0.053698
C 250.016516 -0.013134 -0.037830
C 251.116784 -0.011843 -0.021221
C 127.155262 0.009512 0.012383
C 127.950965 1.245200 -0.578053
C 127.451197 2.507799 -0.823465
C 128.490166 3.264574 -1.423672
C 129.592597 2.441525 -1.520544
N 129.277270 1.242160 -0.933259
C 130.978894 2.800990 -2.192645
C 130.966358 3.789709 -3.292968
C 131.403920 5.102798 -3.069641
C 131.381581 6.040076 -4.103813
C 130.913429 5.655139 -5.367656
N 130.886934 6.635436 -6.458723
O 130.482080 6.260740 -7.570336
O 131.269934 7.790353 -6.214107
C 130.469504 4.346687 -5.602461
C 130.497312 3.418479 -4.559971
C 132.115724 2.174376 -1.792419
C 133.401022 2.425585 -2.411641
C 134.310394 1.664772 -1.811994
N 132.325933 1.234845 -0.822557
C 133.650151 0.889691 -0.781311
C 134.314568 0.009512 0.012383
C 133.518813 -0.808150 1.110932
C 134.018315 -1.291841 2.302864
C 132.979366 -2.026892 2.929542
C 131.877209 -1.963859 2.102842
N 132.192678 -1.156617 1.039065
C 130.490998 -2.692810 2.325732
C 130.503578 -3.963287 3.083421
C 130.971570 -5.135014 2.474209
C 130.999366 -6.337093 3.183682
C 130.556534 -6.359067 4.513220
N 130.583067 -7.618849 5.264450
O 130.201706 -7.601458 6.445391
O 130.986319 -8.637546 4.681685
C 130.089441 -5.193083 5.135265
C 130.067038 -3.997431 4.415258
C 129.354156 -2.179182 1.788168
C 128.068856 -2.835206 1.915250
C 127.159466 -2.100000 1.284488
C 127.819706 -0.939138 0.722812
N 129.143937 -1.046254 1.053447
H 126.446336 2.842545 -0.614597
H 128.432947 4.287338 -1.764014
H 129.933940 0.489385 -0.748506
H 131.765621 5.377663 -2.079922
H 131.730098 7.049617 -3.904808
H 130.102540 4.031609 -6.575315
H 130.156790 2.396576 -4.719945
H 133.597335 3.102014 -3.223767
H 135.354625 1.639272 -2.065339
H 135.022980 -1.150903 2.671940
H 133.036410 -2.557688 3.867710
H 131.536118 -0.830546 0.335773
H 131.311248 -5.094875 1.440362
H 131.365489 -7.231004 2.686431
H 129.741797 -5.192545 6.164525
H 129.706108 -3.079223 4.876295
H 127.872542 -3.762546 2.422332
H 126.115220 -2.343624 1.210672
C 145.002871 0.009512 0.012383
C 145.798574 1.245200 -0.578053
C 145.298806 2.507799 -0.823465
C 146.337775 3.264574 -1.423672
C 147.440207 2.441525 -1.520544
N 147.124879 1.242160 -0.933259
C 148.826503 2.800990 -2.192645
C 148.813967 3.789709 -3.292968
C 149.251529 5.102798 -3.069641
C 149.229190 6.040076 -4.103813
C 148.761038 5.655139 -5.367656
N 148.734543 6.635436 -6.458723
O 148.329689 6.260740 -7.570336
O 149.117543 7.790353 -6.214107
C 148.317113 4.346687 -5.602461
C 148.344921 3.418479 -4.559971
C 149.963333 2.174376 -1.792419
C 151.248631 2.425585 -2.411641
C 152.158003 1.664772 -1.811994
N 150.173542 1.234845 -0.822557
C 151.497760 0.889691 -0.781311
C 152.162177 0.009512 0.012383
C 151.366422 -0.808150 1.110932
C 151.865924 -1.291841 2.302864
C 150.826975 -2.026892 2.929542
C 149.724818 -1.963859 2.102842
N 150.040288 -1.156617 1.039065
C 148.338607 -2.692810 2.325732
C 148.351187 -3.963287 3.083421
C 148.819179 -5.135014 2.474209
C 148.846975 -6.337093 3.183682
C 148.404143 -6.359067 4.513220
N 148.430676 -7.618849 5.264450
O 148.049315 -7.601458 6.445391
O 148.833928 -8.637546 4.681685
C 147.937050 -5.193083 5.135265
C 147.914648 -3.997431 4.415258
C 147.201765 -2.179182 1.788168
C 145.916465 -2.835206 1.915250
C 145.007075 -2.100000 1.284488
C 145.667315 -0.939138 0.722812
N 146.991546 -1.046254 1.053447
H 144.293945 2.842545 -0.614597
H 146.280556 4.287338 -1.764014
H 147.781549 0.489385 -0.748506
H 149.613230 5.377663 -2.079922
H 149.577707 7.049617 -3.904808
H 147.950149 4.031609 -6.575315
H 148.004399 2.396576 -4.719945
H 151.444944 3.102014 -3.223767
H 153.202234 1.639272 -2.065339
H 152.870589 -1.150903 2.671940
H 150.884019 -2.557688 3.867710
H 149.383727 -0.830546 0.335773
H 149.158857 -5.094875 1.440362
H 149.213098 -7.231004 2.686431
H 147.589406 -5.192545 6.164525
H 147.553717 -3.079223 4.876295
H 145.720151 -3.762546 2.422332
H 143.962829 -2.343624 1.210672
C 162.850480 0.009512 0.012383
C 163.646183 1.245200 -0.578053
C 163.146415 2.507799 -0.823465
C 164.185384 3.264574 -1.423672
C 165.287816 2.441525 -1.520544
N 164.972488 1.242160 -0.933259
C 166.674112 2.800990 -2.192645
C 166.661576 3.789709 -3.292968
C 167.099138 5.102798 -3.069641
C 167.076799 6.040076 -4.103813
C 166.608647 5.655139 -5.367656
N 166.582152 6.635436 -6.458723
O 166.177298 6.260740 -7.570336
O 166.965152 7.790353 -6.214107
C 166.164722 4.346687 -5.602461
C 166.192531 3.418479 -4.559971
C 167.810942 2.174376 -1.792419
C 169.096240 2.425585 -2.411641
C 170.005612 1.664772 -1.811994
N 168.021151 1.234845 -0.822557
C 169.345369 0.889691 -0.781311
C 170.009786 0.009512 0.012383
C 169.214031 -0.808150 1.110932
C 169.713533 -1.291841 2.302864
C 168.674584 -2.026892 2.929542
C 167.572427 -1.963859 2.102842
N 167.887897 -1.156617 1.039065
C 166.186216 -2.692810 2.325732
C 166.198796 -3.963287 3.083421
C 166.666788 -5.135014 2.474209
C 166.694584 -6.337093 3.183682
C 166.251752 -6.359067 4.513220
N 166.278285 -7.618849 5.264450
O 165.896924 -7.601458 6.445391
O 166.681537 -8.637546 4.681685
C 165.784659 -5.193083 5.135265
C 165.762257 -3.997431 4.415258
C 165.049374 -2.179182 1.788168
C 163.764074 -2.835206 1.915250
C 162.854684 -2.100000 1.284488
C 163.514924 -0.939138 0.722812
N 164.839155 -1.046254 1.053447
H 162.141554 2.842545 -0.614597
H 164.128165 4.287338 -1.764014
H 165.629158 0.489385 -0.748506
H 167.460839 5.377663 -2.079922
H 167.425316 7.049617 -3.904808
H 165.797758 4.031609 -6.575315
H 165.852008 2.396576 -4.719945
H 169.292553 3.102014 -3.223767
H 171.049843 1.639272 -2.065339
H 170.718198 -1.150903 2.671940
H 168.731628 -2.557688 3.867710
H 167.231336 -0.830546 0.335773
H 167.006466 -5.094875 1.440362
H 167.060707 -7.231004 2.686431
H 165.437015 -5.192545 6.164525
H 165.401326 -3.079223 4.876295
H 163.567760 -3.762546 2.422332
H 161.810438 -2.343624 1.210672
C 180.698089 0.009512 0.012383
C 181.493792 1.245200 -0.578053
C 180.994024 2.507799 -0.823465
C 182.032993 3.264574 -1.423672
C 183.135425 2.441525 -1.520544
N 182.820097 1.242160 -0.933259
C 184.521721 2.800990 -2.192645
C 184.509185 3.789709 -3.292968
C 184.946747 5.102798 -3.069641
C 184.924408 6.040076 -4.103813
C 184.456256 5.655139 -5.367656
N 184.429761 6.635436 -6.458723
O 184.024907 6.260740 -7.570336
O 184.812761 7.790353 -6.214107
C 184.012331 4.346687 -5.602461
C 184.040140 3.418479 -4.559971
C 185.658551 2.174376 -1.792419
C 186.943849 2.425585 -2.411641
C 187.853221 1.664772 -1.811994
N 185.868760 1.234845 -0.822557
C 187.192978 0.889691 -0.781311
C 187.857395 0.009512 0.012383
C 187.061640 -0.808150 1.110932
C 187.561142 -1.291841 2.302864
C 186.522193 -2.026892 2.929542
C 185.420036 -1.963859 2.102842
N 185.735506 -1.156617 1.039065
C 184.033825 -2.692810 2.325732
C 184.046405 -3.963287 3.083421
C 184.514397 -5.135014 2.474209
C 184.542193 -6.337093 3.183682
C 184.099361 -6.359067 4.513220
N 184.125894 -7.618849 5.264450
O 183.744533 -7.601458 6.445391
O 184.529146 -8.637546 4.681685
C 183.632268 -5.193083 5.135265
C 183.609866 -3.997431 4.415258
C 182.896983 -2.179182 1.788168
C 181.611683 -2.835206 1.915250
C 180.702293 -2.100000 1.284488
C 181.362533 -0.939138 0.722812
N 182.686764 -1.046254 1.053447
H 179.989163 2.842545 -0.614597
H 181.975774 4.287338 -1.764014
H 183.476767 0.489385 -0.748506
H 185.308448 5.377663 -2.079922
H 185.272925 7.049617 -3.904808
H 183.645367 4.031609 -6.575315
H 183.699617 2.396576 -4.719945
H 187.140162 3.102014 -3.223767
H 188.897452 1.639272 -2.065339
H 188.565807 -1.150903 2.671940
H 186.579237 -2.557688 3.867710
H 185.078945 -0.830546 0.335773
H 184.854075 -5.094875 1.440362
H 184.908316 -7.231004 2.686431
H 183.284624 -5.192545 6.164525
H 183.248935 -3.079223 4.876295
H 181.415369 -3.762546 2.422332
H 179.658047 -2.343624 1.210672
C 198.545698 0.009512 0.012383
C 199.341401 1.245200 -0.578053
C 198.841633 2.507799 -0.823465
C 199.880602 3.264574 -1.423672
C 200.983034 2.441525 -1.520544
N 200.667706 1.242160 -0.933259
C 202.369330 2.800990 -2.192645
C 202.356794 3.789709 -3.292968
C 202.794356 5.102798 -3.069641
C 202.772017 6.040076 -4.103813
C 202.303865 5.655139 -5.367656
N 202.277370 6.635436 -6.458723
O 201.872516 6.260740 -7.570336
O 202.660370 7.790353 -6.214107
C 201.859940 4.346687 -5.602461
C 201.887749 3.418479 -4.559971
C 203.506160 2.174376 -1.792419
C 204.791458 2.425585 -2.411641
C 205.700830 1.664772 -1.811994
N 203.716369 1.234845 -0.822557
C 205.040587 0.889691 -0.781311
C 205.705004 0.009512 0.012383
C 204.909249 -0.808150 1.110932
C 205.408751 -1.291841 2.302864
C 204.369802 -2.026892 2.929542
C 203.267645 -1.963859 2.102842
N 203.583115 -1.156617 1.039065
C 201.881434 -2.692810 2.325732
C 201.894014 -3.963287 3.083421
C 202.362006 -5.135014 2.474209
C 202.389802 -6.337093 3.183682
C 201.946970 -6.359067 4.513220
N 201.973503 -7.618849 5.264450
O 201.592142 -7.601458 6.445391
O 202.376756 -8.637546 4.681685
C 201.479877 -5.193083 5.135265
C 201.457475 -3.997431 4.415258
C 200.744592 -2.179182 1.788168
C 199.459292 -2.835206 1.915250
C 198.549902 -2.100000 1.284488
C 199.210142 -0.939138 0.722812
N 200.534373 -1.046254 1.053447
H 197.836772 2.842545 -0.614597
H 199.823383 4.287338 -1.764014
H 201.324376 0.489385 -0.748506
H 203.156057 5.377663 -2.079922
H 203.120534 7.049617 -3.904808
H 201.492976 4.031609 -6.575315
H 201.547226 2.396576 -4.719945
H 204.987771 3.102014 -3.223767
H 206.745061 1.639272 -2.065339
H 206.413417 -1.150903 2.671940
H 204.426846 -2.557688 3.867710
H 202.926554 -0.830546 0.335773
H 202.701684 -5.094875 1.440362
H 202.755925 -7.231004 2.686431
H 201.132233 -5.192545 6.164525
H 201.096544 -3.079223 4.876295
H 199.262978 -3.762546 2.422332
H 197.505656 -2.343624 1.210672
C 216.393307 0.009512 0.012383
C 217.189010 1.245200 -0.578053
C 216.689242 2.507799 -0.823465
C 217.728211 3.264574 -1.423672
C 218.830643 2.441525 -1.520544
N 218.515315 1.242160 -0.933259
C 220.216939 2.800990 -2.192645
C 220.204403 3.789709 -3.292968
C 220.641965 5.102798 -3.069641
C 220.619626 6.040076 -4.103813
C 220.151474 5.655139 -5.367656
N 220.124979 6.635436 -6.458723
O 219.720125 6.260740 -7.570336
O 220.507979 7.790353 -6.214107
C 219.707549 4.346687 -5.602461
C 219.735358 3.418479 -4.559971
C 221.353769 2.174376 -1.792419
C 222.639067 2.425585 -2.411641
C 223.548439 1.664772 -1.811994
N 221.563978 1.234845 -0.822557
C 222.888196 0.889691 -0.781311
C 223.552613 0.009512 0.012383
C 222.756858 -0.808150 1.110932
C 223.256360 -1.291841 2.302864
C 222.217411 -2.026892 2.929542
C 221.115254 -1.963859 2.102842
N 221.430724 -1.156617 1.039065
C 219.729043 -2.692810 2.325732
C 219.741623 -3.963287 3.083421
C 220.209615 -5.135014 2.474209
C 220.237411 -6.337093 3.183682
C 219.794579 -6.359067 4.513220
N 219.821112 -7.618849 5.264450
O 219.439751 -7.601458 6.445391
O 220.224365 -8.637546 4.681685
C 219.327486 -5.193083 5.135265
C 219.305084 -3.997431 4.415258
C 218.592201 -2.179182 1.788168
C 217.306901 -2.835206 1.915250
C 216.397511 -2.100000 1.284488
C 217.057751 -0.939138 0.722812
N 218.381982 -1.046254 1.053447
H 215.684381 2.842545 -0.614597
H 217.670992 4.287338 -1.764014
H 219.171985 0.489385 -0.748506
H 221.003666 5.377663 -2.079922
H 220.968143 7.049617 -3.904808
H 219.340585 4.031609 -6.575315
H 219.394835 2.396576 -4.719945
H 222.835380 3.102014 -3.223767
H 224.592670 1.639272 -2.065339
H 224.261026 -1.150903 2.671940
H 222.274455 -2.557688 3.867710
H 220.774163 -0.830546 0.335773
H 220.549293 -5.094875 1.440362
H 220.603534 -7.231004 2.686431
H 218.979842 -5.192545 6.164525
H 218.944153 -3.079223 4.876295
H 217.110587 -3.762546 2.422332
H 215.353265 -2.343624 1.210672
C 234.240916 0.009512 0.012383
C 235.036619 1.245200 -0.578053
C 234.536851 2.507799 -0.823465
C 235.575820 3.264574 -1.423672
C 236.678252 2.441525 -1.520544
N 236.362924 1.242160 -0.933259
C 238.064548 2.800990 -2.192645
C 238.052012 3.789709 -3.292968
C 238.489574 5.102798 -3.069641
C 238.467235 6.040076 -4.103813
C 237.999083 5.655139 -5.367656
N 237.972588 6.635436 -6.458723
O 237.567734 6.260740 -7.570336
O 238.355588 7.790353 -6.214107
C 237.555158 4.346687 -5.602461
C 237.582967 3.418479 -4.559971
C 239.201378 2.174376 -1.792419
C 240.486676 2.425585 -2.411641
C 241.396048 1.664772 -1.811994
N 239.411587 1.234845 -0.822557
C 240.735805 0.889691 -0.781311
C 241.400222 0.009512 0.012383
C 240.604467 -0.808150 1.110932
C 241.103969 -1.291841 2.302864
C 240.065020 -2.026892 2.929542
C 238.962863 -1.963859 2.102842
N 239.278333 -1.156617 1.039065
C 237.576652 -2.692810 2.325732
C 237.589232 -3.963287 3.083421
C 238.057224 -5.135014 2.474209
C 238.085020 -6.337093 3.183682
C 237.642188 -6.359067 4.513220
N 237.668721 -7.618849 5.264450
O 237.287360 -7.601458 6.445391
O 238.071974 -8.637546 4.681685
C 237.175095 -5.193083 5.135265
C 237.152693 -3.997431 4.415258
C 236.439810 -2.179182 1.788168
C 235.154510 -2.835206 1.915250
C 234.245120 -2.100000 1.284488
C 234.905360 -0.939138 0.722812
N 236.229591 -1.046254 1.053447
H 233.531990 2.842545 -0.614597
H 235.518601 4.287338 -1.764014
H 237.019594 0.489385 -0.748506
H 238.851275 5.377663 -2.079922
H 238.815752 7.049617 -3.904808
H 237.188194 4.031609 -6.575315
H 237.242444 2.396576 -4.719945
H 240.682990 3.102014 -3.223767
H 242.440279 1.639272 -2.065339
H 242.108635 -1.150903 2.671940
H 240.122064 -2.557688 3.867710
H 238.621772 -0.830546 0.335773
H 238.396902 -5.094875 1.440362
H 238.451143 -7.231004 2.686431
H 236.827451 -5.192545 6.164525
H 236.791762 -3.079223 4.876295
H 234.958196 -3.762546 2.422332
H 233.200874 -2.343624 1.210672
