 xtb: 6.5.1 (b24c23e)
          07302200273D

132151  0     0  0            999 V2000
   13.2221   -0.0011    0.0983 Co  0  0  0  0  0  0  0  0  0  0  0  0
    9.8576   -0.0300    0.2665 C   0  0  0  0  0  0  0  0  0  0  0  0
   10.4942    1.1829    0.1108 C   0  0  0  0  0  0  0  0  0  0  0  0
    9.8154    2.4365   -0.0185 C   0  0  0  0  0  0  0  0  0  0  0  0
   10.7650    3.3999    0.0302 C   0  0  0  0  0  0  0  0  0  0  0  0
   12.0220    2.7339    0.2131 C   0  0  0  0  0  0  0  0  0  0  0  0
   11.8515    1.3729    0.1828 N   0  0  0  0  0  0  0  0  0  0  0  0
   13.2128    3.3770    0.5225 C   0  0  0  0  0  0  0  0  0  0  0  0
   13.2173    4.8464    0.7055 C   0  0  0  0  0  0  0  0  0  0  0  0
   12.4061    5.4452    1.6653 C   0  0  0  0  0  0  0  0  0  0  0  0
   12.4176    6.8287    1.8371 C   0  0  0  0  0  0  0  0  0  0  0  0
   11.5329    7.4068    2.8802 C   0  0  0  0  0  0  0  0  0  0  0  0
   11.6238    8.7407    2.9805 O   0  0  0  0  0  0  0  0  0  0  0  0
   10.7959    6.7611    3.5805 O   0  0  0  0  0  0  0  0  0  0  0  0
   13.2426    7.6254    1.0433 C   0  0  0  0  0  0  0  0  0  0  0  0
   14.0506    7.0316    0.0865 C   0  0  0  0  0  0  0  0  0  0  0  0
   14.0420    5.6543   -0.0814 C   0  0  0  0  0  0  0  0  0  0  0  0
   14.4004    2.6778    0.6856 C   0  0  0  0  0  0  0  0  0  0  0  0
   15.6358    3.2676    1.1048 C   0  0  0  0  0  0  0  0  0  0  0  0
   16.5886    2.3121    0.9771 C   0  0  0  0  0  0  0  0  0  0  0  0
   14.5868    1.3535    0.3655 N   0  0  0  0  0  0  0  0  0  0  0  0
   15.9326    1.1439    0.4822 C   0  0  0  0  0  0  0  0  0  0  0  0
   16.6098    0.0129    0.0182 C   0  0  0  0  0  0  0  0  0  0  0  0
   15.9257   -1.1090   -0.4582 C   0  0  0  0  0  0  0  0  0  0  0  0
   16.5706   -2.2497   -1.0261 C   0  0  0  0  0  0  0  0  0  0  0  0
   15.6125   -3.1929   -1.1968 C   0  0  0  0  0  0  0  0  0  0  0  0
   14.3884   -2.6304   -0.7110 C   0  0  0  0  0  0  0  0  0  0  0  0
   14.5817   -1.3213   -0.3318 N   0  0  0  0  0  0  0  0  0  0  0  0
   13.2193   -3.3505   -0.5150 C   0  0  0  0  0  0  0  0  0  0  0  0
   13.2172   -4.8079   -0.7778 C   0  0  0  0  0  0  0  0  0  0  0  0
   14.1020   -5.6507   -0.1007 C   0  0  0  0  0  0  0  0  0  0  0  0
   14.1024   -7.0171   -0.3429 C   0  0  0  0  0  0  0  0  0  0  0  0
   13.2231   -7.5591   -1.2651 C   0  0  0  0  0  0  0  0  0  0  0  0
   12.3337   -6.7277   -1.9478 C   0  0  0  0  0  0  0  0  0  0  0  0
   11.4073   -7.3476   -2.9286 C   0  0  0  0  0  0  0  0  0  0  0  0
   10.5873   -6.4686   -3.5229 O   0  0  0  0  0  0  0  0  0  0  0  0
   11.3754   -8.5246   -3.1819 O   0  0  0  0  0  0  0  0  0  0  0  0
   12.3305   -5.3562   -1.7023 C   0  0  0  0  0  0  0  0  0  0  0  0
   12.0543   -2.7447   -0.0612 C   0  0  0  0  0  0  0  0  0  0  0  0
   10.8394   -3.4445    0.2384 C   0  0  0  0  0  0  0  0  0  0  0  0
    9.8925   -2.5044    0.4690 C   0  0  0  0  0  0  0  0  0  0  0  0
   10.5305   -1.2323    0.3152 C   0  0  0  0  0  0  0  0  0  0  0  0
   11.8684   -1.3914    0.0525 N   0  0  0  0  0  0  0  0  0  0  0  0
    8.7766   -0.0401    0.3391 H   0  0  0  0  0  0  0  0  0  0  0  0
    8.7480    2.5446   -0.1271 H   0  0  0  0  0  0  0  0  0  0  0  0
   10.6391    4.4680   -0.0410 H   0  0  0  0  0  0  0  0  0  0  0  0
   11.7697    4.8408    2.3024 H   0  0  0  0  0  0  0  0  0  0  0  0
   11.0200    9.0392    3.6800 H   0  0  0  0  0  0  0  0  0  0  0  0
   13.2483    8.7003    1.1770 H   0  0  0  0  0  0  0  0  0  0  0  0
   14.6928    7.6448   -0.5355 H   0  0  0  0  0  0  0  0  0  0  0  0
   14.6682    5.1971   -0.8393 H   0  0  0  0  0  0  0  0  0  0  0  0
   15.7480    4.2811    1.4543 H   0  0  0  0  0  0  0  0  0  0  0  0
   17.6448    2.3804    1.1824 H   0  0  0  0  0  0  0  0  0  0  0  0
   17.6223   -2.3068   -1.2561 H   0  0  0  0  0  0  0  0  0  0  0  0
   15.7157   -4.1838   -1.6083 H   0  0  0  0  0  0  0  0  0  0  0  0
   14.7817   -5.2302    0.6320 H   0  0  0  0  0  0  0  0  0  0  0  0
   14.7923   -7.6589    0.1931 H   0  0  0  0  0  0  0  0  0  0  0  0
   13.2107   -8.6241   -1.4675 H   0  0  0  0  0  0  0  0  0  0  0  0
   10.0187   -6.9499   -4.1457 H   0  0  0  0  0  0  0  0  0  0  0  0
   11.6484   -4.7114   -2.2438 H   0  0  0  0  0  0  0  0  0  0  0  0
   10.7375   -4.5173    0.2645 H   0  0  0  0  0  0  0  0  0  0  0  0
    8.8504   -2.6399    0.7108 H   0  0  0  0  0  0  0  0  0  0  0  0
   31.7333   -0.0338    0.0931 Co  0  0  0  0  0  0  0  0  0  0  0  0
   35.0980   -0.0592    0.2589 C   0  0  0  0  0  0  0  0  0  0  0  0
   34.4617   -1.1560   -0.2824 C   0  0  0  0  0  0  0  0  0  0  0  0
   35.1409   -2.2987   -0.8134 C   0  0  0  0  0  0  0  0  0  0  0  0
   34.1916   -3.2260   -1.0804 C   0  0  0  0  0  0  0  0  0  0  0  0
   32.9345   -2.6567   -0.6897 C   0  0  0  0  0  0  0  0  0  0  0  0
   33.1046   -1.3600   -0.2750 N   0  0  0  0  0  0  0  0  0  0  0  0
   31.7441   -3.3661   -0.6060 C   0  0  0  0  0  0  0  0  0  0  0  0
   31.7397   -4.8147   -0.9126 C   0  0  0  0  0  0  0  0  0  0  0  0
   32.5521   -5.6940   -0.2022 C   0  0  0  0  0  0  0  0  0  0  0  0
   32.5400   -7.0579   -0.4913 C   0  0  0  0  0  0  0  0  0  0  0  0
   33.4254   -7.9452    0.3050 C   0  0  0  0  0  0  0  0  0  0  0  0
   33.3347   -9.2385   -0.0364 O   0  0  0  0  0  0  0  0  0  0  0  0
   34.1623   -7.5638    1.1779 O   0  0  0  0  0  0  0  0  0  0  0  0
   31.7132   -7.5518   -1.5002 C   0  0  0  0  0  0  0  0  0  0  0  0
   30.9040   -6.6783   -2.2096 C   0  0  0  0  0  0  0  0  0  0  0  0
   30.9133   -5.3216   -1.9187 C   0  0  0  0  0  0  0  0  0  0  0  0
   30.5565   -2.7587   -0.2231 C   0  0  0  0  0  0  0  0  0  0  0  0
   29.3216   -3.4537   -0.0182 C   0  0  0  0  0  0  0  0  0  0  0  0
   28.3682   -2.5093    0.1721 C   0  0  0  0  0  0  0  0  0  0  0  0
   30.3692   -1.4025   -0.0945 N   0  0  0  0  0  0  0  0  0  0  0  0
   29.0232   -1.2432    0.0841 C   0  0  0  0  0  0  0  0  0  0  0  0
   28.3454   -0.0232    0.0138 C   0  0  0  0  0  0  0  0  0  0  0  0
   29.0291    1.1932   -0.0703 C   0  0  0  0  0  0  0  0  0  0  0  0
   28.3830    2.4563   -0.2340 C   0  0  0  0  0  0  0  0  0  0  0  0
   29.3403    3.4043   -0.0875 C   0  0  0  0  0  0  0  0  0  0  0  0
   30.5652    2.7149    0.1870 C   0  0  0  0  0  0  0  0  0  0  0  0
   30.3729    1.3535    0.1181 N   0  0  0  0  0  0  0  0  0  0  0  0
   31.7343    3.3324    0.6061 C   0  0  0  0  0  0  0  0  0  0  0  0
   31.7359    4.7958    0.8332 C   0  0  0  0  0  0  0  0  0  0  0  0
   30.8529    5.3710    1.7500 C   0  0  0  0  0  0  0  0  0  0  0  0
   30.8528    6.7417    1.9675 C   0  0  0  0  0  0  0  0  0  0  0  0
   31.7309    7.5552    1.2714 C   0  0  0  0  0  0  0  0  0  0  0  0
   32.6185    6.9925    0.3529 C   0  0  0  0  0  0  0  0  0  0  0  0
   33.5444    7.8986   -0.3727 C   0  0  0  0  0  0  0  0  0  0  0  0
   34.3640    7.2616   -1.2214 O   0  0  0  0  0  0  0  0  0  0  0  0
   33.5754    9.0940   -0.2289 O   0  0  0  0  0  0  0  0  0  0  0  0
   32.6212    5.6160    0.1368 C   0  0  0  0  0  0  0  0  0  0  0  0
   32.8999    2.6124    0.8363 C   0  0  0  0  0  0  0  0  0  0  0  0
   34.1150    3.1772    1.3462 C   0  0  0  0  0  0  0  0  0  0  0  0
   35.0626    2.2141    1.2564 C   0  0  0  0  0  0  0  0  0  0  0  0
   34.4247    1.0611    0.6972 C   0  0  0  0  0  0  0  0  0  0  0  0
   33.0864    1.2961    0.5024 N   0  0  0  0  0  0  0  0  0  0  0  0
   36.1791   -0.0724    0.3295 H   0  0  0  0  0  0  0  0  0  0  0  0
   36.2082   -2.3649   -0.9520 H   0  0  0  0  0  0  0  0  0  0  0  0
   34.3180   -4.2126   -1.4957 H   0  0  0  0  0  0  0  0  0  0  0  0
   33.1900   -5.3308    0.5962 H   0  0  0  0  0  0  0  0  0  0  0  0
   33.9386   -9.7491    0.5273 H   0  0  0  0  0  0  0  0  0  0  0  0
   31.7069   -8.6116   -1.7246 H   0  0  0  0  0  0  0  0  0  0  0  0
   30.2604   -7.0549   -2.9964 H   0  0  0  0  0  0  0  0  0  0  0  0
   30.2861   -4.6421   -2.4848 H   0  0  0  0  0  0  0  0  0  0  0  0
   29.2103   -4.5258   -0.0173 H   0  0  0  0  0  0  0  0  0  0  0  0
   27.3121   -2.6416    0.3445 H   0  0  0  0  0  0  0  0  0  0  0  0
   27.3310    2.5845   -0.4321 H   0  0  0  0  0  0  0  0  0  0  0  0
   29.2361    4.4751   -0.1525 H   0  0  0  0  0  0  0  0  0  0  0  0
   30.1742    4.7343    2.3063 H   0  0  0  0  0  0  0  0  0  0  0  0
   30.1645    7.1731    2.6852 H   0  0  0  0  0  0  0  0  0  0  0  0
   31.7438    8.6279    1.4283 H   0  0  0  0  0  0  0  0  0  0  0  0
   34.9320    7.9198   -1.6537 H   0  0  0  0  0  0  0  0  0  0  0  0
   33.3018    5.1835   -0.5869 H   0  0  0  0  0  0  0  0  0  0  0  0
   34.2164    4.1830    1.7206 H   0  0  0  0  0  0  0  0  0  0  0  0
   36.1050    2.2642    1.5279 H   0  0  0  0  0  0  0  0  0  0  0  0
   18.0117    0.0100    0.0144 C   0  0  0  0  0  0  0  0  0  0  0  0
   19.2366    0.0055    0.0121 C   0  0  0  0  0  0  0  0  0  0  0  0
   20.5780    0.0018    0.0104 C   0  0  0  0  0  0  0  0  0  0  0  0
   21.8093   -0.0043    0.0094 C   0  0  0  0  0  0  0  0  0  0  0  0
   23.1459   -0.0085    0.0084 C   0  0  0  0  0  0  0  0  0  0  0  0
   24.3773   -0.0122    0.0092 C   0  0  0  0  0  0  0  0  0  0  0  0
   25.7187   -0.0164    0.0104 C   0  0  0  0  0  0  0  0  0  0  0  0
   26.9436   -0.0191    0.0110 C   0  0  0  0  0  0  0  0  0  0  0  0
  2  3  4  0  0  0  0
  3  4  1  0  0  0  0
  4  5  2  0  0  0  0
  5  6  4  0  0  0  0
  1  7  1  0  0  0  0
  3  7  4  0  0  0  0
  6  7  4  0  0  0  0
  6  8  4  0  0  0  0
  8  9  1  0  0  0  0
  9 10  4  0  0  0  0
 10 11  4  0  0  0  0
 11 12  1  0  0  0  0
 12 13  4  0  0  0  0
 12 14  2  0  0  0  0
 11 15  4  0  0  0  0
 15 16  4  0  0  0  0
  9 17  4  0  0  0  0
 16 17  4  0  0  0  0
  8 18  4  0  0  0  0
 18 19  4  0  0  0  0
 19 20  2  0  0  0  0
  1 21  1  0  0  0  0
 18 21  4  0  0  0  0
 20 22  4  0  0  0  0
 21 22  4  0  0  0  0
 22 23  4  0  0  0  0
 23 24  4  0  0  0  0
 24 25  4  0  0  0  0
 25 26  2  0  0  0  0
 26 27  4  0  0  0  0
  1 28  1  0  0  0  0
 24 28  4  0  0  0  0
 27 28  4  0  0  0  0
 27 29  4  0  0  0  0
 29 30  1  0  0  0  0
 30 31  4  0  0  0  0
 31 32  4  0  0  0  0
 32 33  4  0  0  0  0
 33 34  4  0  0  0  0
 34 35  1  0  0  0  0
 35 36  4  0  0  0  0
 35 37  2  0  0  0  0
 30 38  4  0  0  0  0
 34 38  4  0  0  0  0
 29 39  4  0  0  0  0
 39 40  4  0  0  0  0
 40 41  2  0  0  0  0
  2 42  4  0  0  0  0
 41 42  1  0  0  0  0
  1 43  1  0  0  0  0
 39 43  4  0  0  0  0
 42 43  4  0  0  0  0
  2 44  1  0  0  0  0
  4 45  1  0  0  0  0
  5 46  1  0  0  0  0
 10 47  1  0  0  0  0
 13 48  1  0  0  0  0
 15 49  1  0  0  0  0
 16 50  1  0  0  0  0
 17 51  1  0  0  0  0
 19 52  1  0  0  0  0
 20 53  1  0  0  0  0
 25 54  1  0  0  0  0
 26 55  1  0  0  0  0
 31 56  1  0  0  0  0
 32 57  1  0  0  0  0
 33 58  1  0  0  0  0
 36 59  1  0  0  0  0
 38 60  1  0  0  0  0
 40 61  1  0  0  0  0
 41 62  1  0  0  0  0
 64 65  4  0  0  0  0
 65 66  1  0  0  0  0
 66 67  2  0  0  0  0
 67 68  4  0  0  0  0
 63 69  1  0  0  0  0
 65 69  4  0  0  0  0
 68 69  4  0  0  0  0
 68 70  4  0  0  0  0
 70 71  1  0  0  0  0
 71 72  4  0  0  0  0
 72 73  4  0  0  0  0
 73 74  1  0  0  0  0
 74 75  4  0  0  0  0
 74 76  2  0  0  0  0
 73 77  4  0  0  0  0
 77 78  4  0  0  0  0
 71 79  4  0  0  0  0
 78 79  4  0  0  0  0
 70 80  4  0  0  0  0
 80 81  4  0  0  0  0
 81 82  2  0  0  0  0
 63 83  1  0  0  0  0
 80 83  4  0  0  0  0
 82 84  4  0  0  0  0
 83 84  4  0  0  0  0
 84 85  4  0  0  0  0
 85 86  4  0  0  0  0
 86 87  4  0  0  0  0
 87 88  2  0  0  0  0
 88 89  4  0  0  0  0
 63 90  1  0  0  0  0
 86 90  4  0  0  0  0
 89 90  4  0  0  0  0
 89 91  4  0  0  0  0
 91 92  1  0  0  0  0
 92 93  4  0  0  0  0
 93 94  4  0  0  0  0
 94 95  4  0  0  0  0
 95 96  4  0  0  0  0
 96 97  1  0  0  0  0
 97 98  4  0  0  0  0
 97 99  2  0  0  0  0
 92100  4  0  0  0  0
 96100  4  0  0  0  0
 91101  4  0  0  0  0
101102  4  0  0  0  0
102103  2  0  0  0  0
 64104  4  0  0  0  0
103104  1  0  0  0  0
 63105  1  0  0  0  0
101105  4  0  0  0  0
104105  4  0  0  0  0
 64106  1  0  0  0  0
 66107  1  0  0  0  0
 67108  1  0  0  0  0
 72109  1  0  0  0  0
 75110  1  0  0  0  0
 77111  1  0  0  0  0
 78112  1  0  0  0  0
 79113  1  0  0  0  0
 81114  1  0  0  0  0
 82115  1  0  0  0  0
 87116  1  0  0  0  0
 88117  1  0  0  0  0
 93118  1  0  0  0  0
 94119  1  0  0  0  0
 95120  1  0  0  0  0
 98121  1  0  0  0  0
100122  1  0  0  0  0
102123  1  0  0  0  0
103124  1  0  0  0  0
 23125  4  0  0  0  0
125126  3  0  0  0  0
126127  4  0  0  0  0
127128  3  0  0  0  0
128129  4  0  0  0  0
129130  3  0  0  0  0
130131  4  0  0  0  0
 85132  4  0  0  0  0
131132  3  0  0  0  0
M  END
