 xtb: 6.5.1 (b24c23e)
          07292219033D

124143  0     0  0            999 V2000
   15.3986    0.0393   -0.0654 Fe  0  0  0  0  0  0  0  0  0  0  0  0
   12.0149    0.1277    0.0376 C   0  0  0  0  0  0  0  0  0  0  0  0
   12.6683    1.1496   -0.6202 C   0  0  0  0  0  0  0  0  0  0  0  0
   11.9981    2.2153   -1.3009 C   0  0  0  0  0  0  0  0  0  0  0  0
   12.9585    3.0794   -1.7080 C   0  0  0  0  0  0  0  0  0  0  0  0
   14.2133    2.5444   -1.2653 C   0  0  0  0  0  0  0  0  0  0  0  0
   14.0251    1.3441   -0.6368 N   0  0  0  0  0  0  0  0  0  0  0  0
   15.4348    3.1965   -1.4151 C   0  0  0  0  0  0  0  0  0  0  0  0
   15.4433    4.5589   -1.9915 C   0  0  0  0  0  0  0  0  0  0  0  0
   16.1639    4.8420   -3.1548 C   0  0  0  0  0  0  0  0  0  0  0  0
   16.1683    6.1159   -3.6940 C   0  0  0  0  0  0  0  0  0  0  0  0
   15.4523    7.1431   -3.0732 C   0  0  0  0  0  0  0  0  0  0  0  0
   15.4952    8.4292   -3.5804 N   0  0  0  0  0  0  0  0  0  0  0  0
   14.7397    6.8713   -1.9021 C   0  0  0  0  0  0  0  0  0  0  0  0
   14.7301    5.5919   -1.3768 C   0  0  0  0  0  0  0  0  0  0  0  0
   16.6417    2.6186   -1.0424 C   0  0  0  0  0  0  0  0  0  0  0  0
   17.9104    3.2760   -1.1451 C   0  0  0  0  0  0  0  0  0  0  0  0
   18.8522    2.3659   -0.7967 C   0  0  0  0  0  0  0  0  0  0  0  0
   16.8078    1.3350   -0.5787 N   0  0  0  0  0  0  0  0  0  0  0  0
   18.1556    1.1629   -0.4661 C   0  0  0  0  0  0  0  0  0  0  0  0
   18.8046   -0.0305   -0.1261 C   0  0  0  0  0  0  0  0  0  0  0  0
   18.1167   -1.1912    0.2493 C   0  0  0  0  0  0  0  0  0  0  0  0
   18.7685   -2.4280    0.5434 C   0  0  0  0  0  0  0  0  0  0  0  0
   17.8044   -3.2849    0.9600 C   0  0  0  0  0  0  0  0  0  0  0  0
   16.5680   -2.5623    0.9314 C   0  0  0  0  0  0  0  0  0  0  0  0
   16.7725   -1.2893    0.4555 N   0  0  0  0  0  0  0  0  0  0  0  0
   15.3563   -3.0761    1.3771 C   0  0  0  0  0  0  0  0  0  0  0  0
   15.3325   -4.4299    1.9724 C   0  0  0  0  0  0  0  0  0  0  0  0
   16.1045   -4.7294    3.0982 C   0  0  0  0  0  0  0  0  0  0  0  0
   16.0801   -5.9934    3.6593 C   0  0  0  0  0  0  0  0  0  0  0  0
   15.2919   -6.9981    3.0914 C   0  0  0  0  0  0  0  0  0  0  0  0
   15.2358   -8.2525    3.6712 N   0  0  0  0  0  0  0  0  0  0  0  0
   14.5152   -6.7064    1.9666 C   0  0  0  0  0  0  0  0  0  0  0  0
   14.5358   -5.4364    1.4194 C   0  0  0  0  0  0  0  0  0  0  0  0
   14.1606   -2.3696    1.2771 C   0  0  0  0  0  0  0  0  0  0  0  0
   12.9024   -2.8466    1.7742 C   0  0  0  0  0  0  0  0  0  0  0  0
   11.9637   -1.9485    1.3916 C   0  0  0  0  0  0  0  0  0  0  0  0
   12.6512   -0.9178    0.6751 C   0  0  0  0  0  0  0  0  0  0  0  0
   13.9996   -1.1630    0.6517 N   0  0  0  0  0  0  0  0  0  0  0  0
   10.9309    0.1491    0.0578 H   0  0  0  0  0  0  0  0  0  0  0  0
   10.9303    2.2772   -1.4404 H   0  0  0  0  0  0  0  0  0  0  0  0
   12.8400    3.9947   -2.2651 H   0  0  0  0  0  0  0  0  0  0  0  0
   16.7071    4.0464   -3.6528 H   0  0  0  0  0  0  0  0  0  0  0  0
   16.7243    6.3214   -4.6023 H   0  0  0  0  0  0  0  0  0  0  0  0
   15.7333    8.4970   -4.5569 H   0  0  0  0  0  0  0  0  0  0  0  0
   14.7312    9.0244   -3.3033 H   0  0  0  0  0  0  0  0  0  0  0  0
   14.1942    7.6676   -1.4078 H   0  0  0  0  0  0  0  0  0  0  0  0
   14.1823    5.3907   -0.4627 H   0  0  0  0  0  0  0  0  0  0  0  0
   18.0537    4.3026   -1.4405 H   0  0  0  0  0  0  0  0  0  0  0  0
   19.9230    2.4854   -0.7592 H   0  0  0  0  0  0  0  0  0  0  0  0
   19.8268   -2.6048    0.4365 H   0  0  0  0  0  0  0  0  0  0  0  0
   17.9114   -4.3168    1.2522 H   0  0  0  0  0  0  0  0  0  0  0  0
   16.7113   -3.9528    3.5506 H   0  0  0  0  0  0  0  0  0  0  0  0
   16.6731   -6.2099    4.5412 H   0  0  0  0  0  0  0  0  0  0  0  0
   16.0281   -8.4956    4.2440 H   0  0  0  0  0  0  0  0  0  0  0  0
   14.9293   -8.9931    3.0610 H   0  0  0  0  0  0  0  0  0  0  0  0
   13.8998   -7.4814    1.5227 H   0  0  0  0  0  0  0  0  0  0  0  0
   13.9449   -5.2232    0.5354 H   0  0  0  0  0  0  0  0  0  0  0  0
   12.7670   -3.7497    2.3470 H   0  0  0  0  0  0  0  0  0  0  0  0
   10.9001   -1.9655    1.5694 H   0  0  0  0  0  0  0  0  0  0  0  0
   28.8068   -0.0760   -0.0039 Fe  0  0  0  0  0  0  0  0  0  0  0  0
   32.1906   -0.0401    0.1243 C   0  0  0  0  0  0  0  0  0  0  0  0
   31.5371   -1.1528    0.6133 C   0  0  0  0  0  0  0  0  0  0  0  0
   32.2073   -2.3091    1.1252 C   0  0  0  0  0  0  0  0  0  0  0  0
   31.2470   -3.1253    1.6215 C   0  0  0  0  0  0  0  0  0  0  0  0
   29.9922   -2.4604    1.4209 C   0  0  0  0  0  0  0  0  0  0  0  0
   30.1804   -1.2735    0.7673 N   0  0  0  0  0  0  0  0  0  0  0  0
   28.7709   -2.9450    1.8825 C   0  0  0  0  0  0  0  0  0  0  0  0
   28.7626   -4.1780    2.7000 C   0  0  0  0  0  0  0  0  0  0  0  0
   28.0418   -5.3040    2.2939 C   0  0  0  0  0  0  0  0  0  0  0  0
   28.0376   -6.4571    3.0582 C   0  0  0  0  0  0  0  0  0  0  0  0
   28.7541   -6.5068    4.2570 C   0  0  0  0  0  0  0  0  0  0  0  0
   28.7113   -7.6399    5.0492 N   0  0  0  0  0  0  0  0  0  0  0  0
   29.4669   -5.3804    4.6769 C   0  0  0  0  0  0  0  0  0  0  0  0
   29.4763   -4.2360    3.9003 C   0  0  0  0  0  0  0  0  0  0  0  0
   27.5640   -2.3149    1.6073 C   0  0  0  0  0  0  0  0  0  0  0  0
   26.2954   -2.7636    2.0989 C   0  0  0  0  0  0  0  0  0  0  0  0
   25.3535   -1.9704    1.5330 C   0  0  0  0  0  0  0  0  0  0  0  0
   27.3977   -1.2194    0.7934 N   0  0  0  0  0  0  0  0  0  0  0  0
   26.0499   -1.0304    0.7124 C   0  0  0  0  0  0  0  0  0  0  0  0
   25.4008   -0.0876   -0.0944 C   0  0  0  0  0  0  0  0  0  0  0  0
   26.0885    0.8666   -0.8544 C   0  0  0  0  0  0  0  0  0  0  0  0
   25.4364    1.7953   -1.7223 C   0  0  0  0  0  0  0  0  0  0  0  0
   26.4004    2.6161   -2.2064 C   0  0  0  0  0  0  0  0  0  0  0  0
   27.6370    2.1928   -1.6204 C   0  0  0  0  0  0  0  0  0  0  0  0
   27.4327    1.0926   -0.8225 N   0  0  0  0  0  0  0  0  0  0  0  0
   28.8487    2.8480   -1.8030 C   0  0  0  0  0  0  0  0  0  0  0  0
   28.8722    4.0925   -2.6020 C   0  0  0  0  0  0  0  0  0  0  0  0
   28.1001    5.1961   -2.2291 C   0  0  0  0  0  0  0  0  0  0  0  0
   28.1242    6.3625   -2.9722 C   0  0  0  0  0  0  0  0  0  0  0  0
   28.9124    6.4447   -4.1234 C   0  0  0  0  0  0  0  0  0  0  0  0
   28.9682    7.6214   -4.8481 N   0  0  0  0  0  0  0  0  0  0  0  0
   29.6892    5.3464   -4.5023 C   0  0  0  0  0  0  0  0  0  0  0  0
   29.6688    4.1882   -3.7465 C   0  0  0  0  0  0  0  0  0  0  0  0
   30.0447    2.3739   -1.2703 C   0  0  0  0  0  0  0  0  0  0  0  0
   31.3029    3.0514   -1.3940 C   0  0  0  0  0  0  0  0  0  0  0  0
   32.2418    2.2357   -0.8578 C   0  0  0  0  0  0  0  0  0  0  0  0
   31.5543    1.0691   -0.3943 C   0  0  0  0  0  0  0  0  0  0  0  0
   30.2057    1.1857   -0.6105 N   0  0  0  0  0  0  0  0  0  0  0  0
   33.2746   -0.0355    0.1524 H   0  0  0  0  0  0  0  0  0  0  0  0
   33.2750   -2.4598    1.0989 H   0  0  0  0  0  0  0  0  0  0  0  0
   31.3655   -4.0953    2.0767 H   0  0  0  0  0  0  0  0  0  0  0  0
   27.4982   -5.2798    1.3559 H   0  0  0  0  0  0  0  0  0  0  0  0
   27.4814   -7.3277    2.7282 H   0  0  0  0  0  0  0  0  0  0  0  0
   28.4727   -8.4913    4.5665 H   0  0  0  0  0  0  0  0  0  0  0  0
   29.4759   -7.7379    5.6979 H   0  0  0  0  0  0  0  0  0  0  0  0
   30.0128   -5.4082    5.6136 H   0  0  0  0  0  0  0  0  0  0  0  0
   30.0243   -3.3629    4.2372 H   0  0  0  0  0  0  0  0  0  0  0  0
   26.1523   -3.5768    2.7916 H   0  0  0  0  0  0  0  0  0  0  0  0
   24.2827   -2.0051    1.6535 H   0  0  0  0  0  0  0  0  0  0  0  0
   24.3781    1.8040   -1.9284 H   0  0  0  0  0  0  0  0  0  0  0  0
   26.2932    3.4299   -2.9049 H   0  0  0  0  0  0  0  0  0  0  0  0
   27.4934    5.1436   -1.3317 H   0  0  0  0  0  0  0  0  0  0  0  0
   27.5312    7.2169   -2.6650 H   0  0  0  0  0  0  0  0  0  0  0  0
   28.1759    8.2330   -4.7340 H   0  0  0  0  0  0  0  0  0  0  0  0
   29.2747    7.5225   -5.8026 H   0  0  0  0  0  0  0  0  0  0  0  0
   30.3044    5.4050   -5.3935 H   0  0  0  0  0  0  0  0  0  0  0  0
   30.2597    3.3338   -4.0578 H   0  0  0  0  0  0  0  0  0  0  0  0
   31.4384    4.0278   -1.8300 H   0  0  0  0  0  0  0  0  0  0  0  0
   33.3056    2.3929   -0.7746 H   0  0  0  0  0  0  0  0  0  0  0  0
   21.4291   -0.0766   -0.1556 C   0  0  0  0  0  0  0  0  0  0  0  0
   20.2056   -0.0598   -0.1501 C   0  0  0  0  0  0  0  0  0  0  0  0
   22.7761   -0.0876   -0.1490 C   0  0  0  0  0  0  0  0  0  0  0  0
   23.9998   -0.0917   -0.1327 C   0  0  0  0  0  0  0  0  0  0  0  0
  2  3  4  0  0  0  0
  3  4  4  0  0  0  0
  4  5  2  0  0  0  0
  5  6  4  0  0  0  0
  1  7  1  0  0  0  0
  3  7  4  0  0  0  0
  6  7  4  0  0  0  0
  6  8  4  0  0  0  0
  8  9  1  0  0  0  0
  9 10  4  0  0  0  0
 10 11  4  0  0  0  0
 11 12  4  0  0  0  0
 12 13  1  0  0  0  0
 12 14  4  0  0  0  0
  9 15  4  0  0  0  0
 14 15  4  0  0  0  0
  8 16  4  0  0  0  0
 16 17  4  0  0  0  0
 17 18  2  0  0  0  0
  1 19  1  0  0  0  0
 16 19  4  0  0  0  0
 18 20  4  0  0  0  0
 19 20  4  0  0  0  0
 20 21  4  0  0  0  0
 21 22  4  0  0  0  0
 22 23  4  0  0  0  0
 23 24  2  0  0  0  0
 24 25  4  0  0  0  0
  1 26  1  0  0  0  0
 22 26  4  0  0  0  0
 25 26  4  0  0  0  0
 25 27  4  0  0  0  0
 27 28  1  0  0  0  0
 28 29  4  0  0  0  0
 29 30  4  0  0  0  0
 30 31  4  0  0  0  0
 31 32  1  0  0  0  0
 31 33  4  0  0  0  0
 28 34  4  0  0  0  0
 33 34  4  0  0  0  0
 27 35  4  0  0  0  0
 35 36  4  0  0  0  0
 36 37  2  0  0  0  0
  2 38  4  0  0  0  0
 37 38  4  0  0  0  0
  1 39  1  0  0  0  0
 35 39  4  0  0  0  0
 38 39  4  0  0  0  0
  2 40  1  0  0  0  0
  4 41  1  0  0  0  0
  5 42  1  0  0  0  0
 10 43  1  0  0  0  0
 11 44  1  0  0  0  0
 13 45  1  0  0  0  0
 13 46  1  0  0  0  0
 14 47  1  0  0  0  0
 15 48  1  0  0  0  0
 17 49  1  0  0  0  0
 18 50  1  0  0  0  0
 23 51  1  0  0  0  0
 24 52  1  0  0  0  0
 29 53  1  0  0  0  0
 30 54  1  0  0  0  0
 32 55  1  0  0  0  0
 32 56  1  0  0  0  0
 33 57  1  0  0  0  0
 34 58  1  0  0  0  0
 36 59  1  0  0  0  0
 37 60  1  0  0  0  0
 62 63  4  0  0  0  0
 63 64  4  0  0  0  0
 64 65  2  0  0  0  0
 65 66  4  0  0  0  0
 61 67  1  0  0  0  0
 63 67  4  0  0  0  0
 66 67  4  0  0  0  0
 66 68  4  0  0  0  0
 68 69  1  0  0  0  0
 69 70  4  0  0  0  0
 70 71  4  0  0  0  0
 71 72  4  0  0  0  0
 72 73  1  0  0  0  0
 72 74  4  0  0  0  0
 69 75  4  0  0  0  0
 74 75  4  0  0  0  0
 68 76  4  0  0  0  0
 76 77  4  0  0  0  0
 77 78  2  0  0  0  0
 61 79  1  0  0  0  0
 76 79  4  0  0  0  0
 78 80  4  0  0  0  0
 79 80  4  0  0  0  0
 80 81  4  0  0  0  0
 81 82  4  0  0  0  0
 82 83  4  0  0  0  0
 83 84  2  0  0  0  0
 84 85  4  0  0  0  0
 61 86  1  0  0  0  0
 82 86  4  0  0  0  0
 85 86  4  0  0  0  0
 85 87  4  0  0  0  0
 87 88  1  0  0  0  0
 88 89  4  0  0  0  0
 89 90  4  0  0  0  0
 90 91  4  0  0  0  0
 91 92  1  0  0  0  0
 91 93  4  0  0  0  0
 88 94  4  0  0  0  0
 93 94  4  0  0  0  0
 87 95  4  0  0  0  0
 95 96  4  0  0  0  0
 96 97  2  0  0  0  0
 62 98  4  0  0  0  0
 97 98  4  0  0  0  0
 61 99  1  0  0  0  0
 95 99  4  0  0  0  0
 98 99  4  0  0  0  0
 62100  1  0  0  0  0
 64101  1  0  0  0  0
 65102  1  0  0  0  0
 70103  1  0  0  0  0
 71104  1  0  0  0  0
 73105  1  0  0  0  0
 73106  1  0  0  0  0
 74107  1  0  0  0  0
 75108  1  0  0  0  0
 77109  1  0  0  0  0
 78110  1  0  0  0  0
 83111  1  0  0  0  0
 84112  1  0  0  0  0
 89113  1  0  0  0  0
 90114  1  0  0  0  0
 92115  1  0  0  0  0
 92116  1  0  0  0  0
 93117  1  0  0  0  0
 94118  1  0  0  0  0
 96119  1  0  0  0  0
 97120  1  0  0  0  0
 21122  4  0  0  0  0
121122  3  0  0  0  0
121123  4  0  0  0  0
 81124  4  0  0  0  0
123124  3  0  0  0  0
M  END
