232

Ni 32.587246 0.012666 -0.012955
C 29.221211 -0.101485 -0.044892
C 29.884150 -1.259911 0.012662
C 29.232514 -2.562841 0.071473
C 30.172372 -3.483213 0.178399
C 31.478534 -2.810439 0.192352
N 31.302375 -1.397525 0.082416
C 32.667430 -3.428371 0.345893
C 32.703205 -4.899563 0.496237
C 32.908478 -5.476023 1.756776
C 32.937148 -6.867325 1.877774
N 32.764486 -7.651154 0.780049
C 32.562545 -7.116202 -0.453707
C 32.529206 -5.729533 -0.619474
C 33.961671 -2.697620 0.385783
C 35.251688 -3.335313 0.675247
C 36.186316 -2.411072 0.591468
N 34.103528 -1.433459 0.126634
C 35.502691 -1.173342 0.238492
C 36.099077 0.003828 -0.013774
C 35.341213 1.219693 -0.387074
C 35.884507 2.293146 -0.946936
C 34.841835 3.292719 -1.065032
C 33.730180 2.765947 -0.566003
N 33.954931 1.428892 -0.115537
C 32.445074 3.499202 -0.429094
C 32.467921 4.981842 -0.476289
C 31.806208 5.675775 -1.499835
C 31.850419 7.071682 -1.522623
N 32.537053 7.748867 -0.563872
C 33.196255 7.100984 0.432663
C 33.177354 5.705650 0.493119
C 31.278183 2.850422 -0.251773
C 29.965976 3.466718 -0.061910
C 29.103735 2.473187 0.031897
C 29.856127 1.225241 -0.083480
N 31.124490 1.432409 -0.248965
H 28.138062 -0.129467 -0.045087
H 28.168129 -2.757378 0.046324
H 29.983836 -4.546195 0.255994
H 33.044879 -4.854612 2.633219
H 33.095962 -7.324470 2.845234
H 32.427373 -7.767764 -1.306634
H 32.367771 -5.306542 -1.603206
H 35.429782 -4.376035 0.909985
H 37.244074 -2.574197 0.745506
H 36.917686 2.418251 -1.240594
H 34.959820 4.291832 -1.462807
H 31.265565 5.141102 -2.270106
H 31.339759 7.617147 -2.304947
H 33.734512 7.669236 1.179803
H 33.702848 5.194549 1.290355
H 29.721451 4.519058 -0.001083
H 28.036616 2.577698 0.178142
Ni 81.973630 -0.004391 -0.010421
C 85.339665 0.095544 -0.074166
C 84.676726 1.220663 -0.355894
C 85.328362 2.484410 -0.678431
C 84.388504 3.396112 -0.843708
C 83.082341 2.756456 -0.634759
N 83.258501 1.372613 -0.329161
C 81.893446 3.392335 -0.667504
C 81.857671 4.843688 -0.951382
C 81.652398 5.761729 0.087109
C 81.623728 7.128111 -0.201620
N 81.796390 7.558933 -1.479814
C 81.998331 6.688394 -2.504747
C 82.031670 5.313429 -2.260200
C 80.599205 2.704748 -0.416883
C 79.309188 3.399052 -0.325322
C 78.374560 2.490377 -0.136772
N 80.457348 1.419850 -0.297301
C 79.058185 1.203490 -0.114649
C 78.461799 0.003828 -0.013774
C 79.219663 -1.268048 -0.017453
C 78.676369 -2.457904 -0.241042
C 79.719041 -3.448633 -0.063425
C 80.830696 -2.799531 0.260897
N 80.605945 -1.389265 0.303175
C 82.115802 -3.461307 0.605075
C 82.092955 -4.893624 0.990974
C 82.754667 -5.855162 0.213393
C 82.710457 -7.197396 0.597428
N 82.023823 -7.566587 1.711647
C 81.364621 -6.656962 2.476772
C 81.383522 -5.304324 2.128943
C 83.282693 -2.788999 0.586113
C 84.594900 -3.323473 0.946954
C 85.457141 -2.345586 0.747854
C 84.704749 -1.185091 0.274639
N 83.436386 -1.431423 0.176533
H 86.422814 0.122261 -0.082488
H 86.392747 2.663232 -0.759052
H 84.577040 4.435736 -1.078511
H 81.515996 5.421974 1.106359
H 81.464914 7.846783 0.591141
H 82.133503 7.063834 -3.510262
H 82.193105 4.622704 -3.078459
H 79.131094 4.463065 -0.403299
H 77.316802 2.691240 -0.036815
H 77.643190 -2.662981 -0.485642
H 79.601056 -4.520235 -0.153540
H 83.295311 -5.567530 -0.679054
H 83.221117 -7.946748 0.007484
H 80.826364 -6.983447 3.356848
H 80.858028 -4.583517 2.743146
H 84.839424 -4.312671 1.311105
H 86.524260 -2.403064 0.918167
C 42.348667 0.004582 -0.005188
C 41.139728 -0.008873 -0.013635
C 39.718199 -0.000054 -0.025618
C 38.506529 0.007385 -0.014755
C 43.765271 -0.002093 -0.004655
C 44.985967 0.007385 -0.014755
C 57.884155 0.004582 -0.005188
C 56.675215 -0.008873 -0.013635
C 55.253686 -0.000054 -0.025618
C 54.042017 0.007385 -0.014755
C 59.300759 -0.002093 -0.004655
C 60.521455 0.007385 -0.014755
C 73.419642 0.004582 -0.005188
C 72.210703 -0.008873 -0.013635
C 70.789174 -0.000054 -0.025618
C 69.577505 0.007385 -0.014755
C 74.836247 -0.002093 -0.004655
C 76.056943 0.007385 -0.014755
Ni 49.436284 0.029407 -0.053314
C 46.068641 -0.005154 0.016539
C 46.723962 -0.803447 0.879255
C 46.083085 -1.625060 1.908012
C 47.019398 -2.309413 2.534609
C 48.316648 -1.969811 1.941062
N 48.138872 -1.008501 0.897631
C 49.501040 -2.497526 2.317732
C 49.537105 -3.533928 3.375800
C 49.009525 -4.811638 3.139116
C 49.069083 -5.776206 4.147686
N 49.639633 -5.476866 5.345089
C 50.163774 -4.247947 5.597949
C 50.124153 -3.253782 4.617468
C 50.797677 -2.083455 1.723380
C 52.065800 -2.786627 1.956042
C 53.017834 -2.117652 1.337655
N 50.965525 -1.029436 0.986940
C 52.363247 -0.982869 0.699745
C 52.978210 -0.005154 0.016539
C 52.227149 1.095109 -0.623104
C 52.759644 2.252533 -0.993577
C 51.727535 2.995571 -1.691878
C 50.636522 2.238275 -1.703623
N 50.861979 1.002724 -1.027275
C 49.383809 2.579201 -2.420021
C 49.446775 3.568290 -3.524320
C 50.253761 3.323122 -4.644579
C 50.318225 4.272980 -5.666763
N 49.607970 5.428342 -5.570374
C 48.824162 5.695455 -4.492022
C 48.731751 4.773122 -3.447109
C 48.212498 1.995762 -2.099827
C 46.937580 2.196546 -2.781158
C 46.049855 1.488097 -2.113497
C 46.746741 0.824541 -1.006140
N 48.010822 1.114281 -0.994758
H 45.028410 -1.680736 2.142026
H 46.832796 -2.993649 3.351959
H 48.559697 -5.056040 2.184698
H 48.663257 -6.764423 3.977448
H 50.612447 -4.042490 6.560481
H 50.544321 -2.276733 4.822471
H 52.215221 -3.691314 2.530599
H 54.066691 -2.382689 1.325811
H 53.781416 2.573249 -0.840126
H 51.841917 3.968023 -2.153067
H 50.822960 2.405193 -4.725964
H 50.934564 4.091755 -6.537118
H 48.274642 6.626064 -4.443948
H 48.114111 4.995981 -2.585731
H 46.733923 2.791408 -3.661766
H 45.000123 1.416808 -2.364438
Ni 64.971771 0.029407 -0.053314
C 61.604128 -0.005154 0.016539
C 62.259449 -0.803447 0.879255
C 61.618572 -1.625060 1.908012
C 62.554886 -2.309413 2.534609
C 63.852136 -1.969811 1.941062
N 63.674359 -1.008501 0.897631
C 65.036528 -2.497526 2.317732
C 65.072593 -3.533928 3.375800
C 64.545012 -4.811638 3.139116
C 64.604570 -5.776206 4.147686
N 65.175121 -5.476866 5.345089
C 65.699262 -4.247947 5.597949
C 65.659641 -3.253782 4.617468
C 66.333164 -2.083455 1.723380
C 67.601288 -2.786627 1.956042
C 68.553322 -2.117652 1.337655
N 66.501013 -1.029436 0.986940
C 67.898735 -0.982869 0.699745
C 68.513697 -0.005154 0.016539
C 67.762637 1.095109 -0.623104
C 68.295131 2.252533 -0.993577
C 67.263023 2.995571 -1.691878
C 66.172009 2.238275 -1.703623
N 66.397466 1.002724 -1.027275
C 64.919296 2.579201 -2.420021
C 64.982263 3.568290 -3.524320
C 65.789249 3.323122 -4.644579
C 65.853712 4.272980 -5.666763
N 65.143457 5.428342 -5.570374
C 64.359650 5.695455 -4.492022
C 64.267238 4.773122 -3.447109
C 63.747986 1.995762 -2.099827
C 62.473068 2.196546 -2.781158
C 61.585343 1.488097 -2.113497
C 62.282229 0.824541 -1.006140
N 63.546310 1.114281 -0.994758
H 60.563898 -1.680736 2.142026
H 62.368284 -2.993649 3.351959
H 64.095185 -5.056040 2.184698
H 64.198745 -6.764423 3.977448
H 66.147935 -4.042490 6.560481
H 66.079809 -2.276733 4.822471
H 67.750708 -3.691314 2.530599
H 69.602179 -2.382689 1.325811
H 69.316903 2.573249 -0.840126
H 67.377405 3.968023 -2.153067
H 66.358448 2.405193 -4.725964
H 66.470052 4.091755 -6.537118
H 63.810129 6.626064 -4.443948
H 63.649599 4.995981 -2.585731
H 62.269411 2.791408 -3.661766
H 60.535611 1.416808 -2.364438
