 xtb: 6.5.1 (b24c23e)
          07302202403D

232271  0     0  0            999 V2000
   33.2760   -0.0206   -0.0188 Ni  0  0  0  0  0  0  0  0  0  0  0  0
   29.8816   -0.0538   -0.0549 C   0  0  0  0  0  0  0  0  0  0  0  0
   30.5400   -1.2651   -0.0241 C   0  0  0  0  0  0  0  0  0  0  0  0
   29.8662   -2.5274    0.0051 C   0  0  0  0  0  0  0  0  0  0  0  0
   30.8239   -3.4756    0.1271 C   0  0  0  0  0  0  0  0  0  0  0  0
   32.0835   -2.7913    0.1635 C   0  0  0  0  0  0  0  0  0  0  0  0
   31.8995   -1.4355    0.0561 N   0  0  0  0  0  0  0  0  0  0  0  0
   33.3009   -3.4258    0.3711 C   0  0  0  0  0  0  0  0  0  0  0  0
   33.3123   -4.8987    0.5414 C   0  0  0  0  0  0  0  0  0  0  0  0
   33.6783   -5.4849    1.7518 C   0  0  0  0  0  0  0  0  0  0  0  0
   33.6706   -6.8667    1.8617 C   0  0  0  0  0  0  0  0  0  0  0  0
   33.3328   -7.6710    0.8591 N   0  0  0  0  0  0  0  0  0  0  0  0
   32.9850   -7.1195   -0.2990 C   0  0  0  0  0  0  0  0  0  0  0  0
   32.9568   -5.7490   -0.5044 C   0  0  0  0  0  0  0  0  0  0  0  0
   34.5078   -2.7425    0.4225 C   0  0  0  0  0  0  0  0  0  0  0  0
   35.7743   -3.3840    0.6075 C   0  0  0  0  0  0  0  0  0  0  0  0
   36.7202   -2.4212    0.4976 C   0  0  0  0  0  0  0  0  0  0  0  0
   34.6774   -1.3925    0.2115 N   0  0  0  0  0  0  0  0  0  0  0  0
   36.0309   -1.1969    0.2399 C   0  0  0  0  0  0  0  0  0  0  0  0
   36.6900    0.0080   -0.0169 C   0  0  0  0  0  0  0  0  0  0  0  0
   36.0102    1.2031   -0.2648 C   0  0  0  0  0  0  0  0  0  0  0  0
   36.6763    2.4350   -0.5458 C   0  0  0  0  0  0  0  0  0  0  0  0
   35.7145    3.3839   -0.6405 C   0  0  0  0  0  0  0  0  0  0  0  0
   34.4630    2.7281   -0.4101 C   0  0  0  0  0  0  0  0  0  0  0  0
   34.6546    1.3793   -0.2126 N   0  0  0  0  0  0  0  0  0  0  0  0
   33.2432    3.3897   -0.3708 C   0  0  0  0  0  0  0  0  0  0  0  0
   33.2322    4.8641   -0.5160 C   0  0  0  0  0  0  0  0  0  0  0  0
   32.5909    5.4820   -1.5888 C   0  0  0  0  0  0  0  0  0  0  0  0
   32.6105    6.8648   -1.6816 C   0  0  0  0  0  0  0  0  0  0  0  0
   33.2119    7.6422   -0.7870 N   0  0  0  0  0  0  0  0  0  0  0  0
   33.8237    7.0611    0.2399 C   0  0  0  0  0  0  0  0  0  0  0  0
   33.8635    5.6869    0.4159 C   0  0  0  0  0  0  0  0  0  0  0  0
   32.0337    2.7275   -0.2065 C   0  0  0  0  0  0  0  0  0  0  0  0
   30.7637    3.3892   -0.1349 C   0  0  0  0  0  0  0  0  0  0  0  0
   29.8216    2.4209   -0.0566 C   0  0  0  0  0  0  0  0  0  0  0  0
   30.5170    1.1701   -0.0656 C   0  0  0  0  0  0  0  0  0  0  0  0
   31.8739    1.3667   -0.1287 N   0  0  0  0  0  0  0  0  0  0  0  0
   28.7979   -0.0642   -0.0622 H   0  0  0  0  0  0  0  0  0  0  0  0
   28.7962   -2.6499   -0.0489 H   0  0  0  0  0  0  0  0  0  0  0  0
   30.7017   -4.5439    0.2010 H   0  0  0  0  0  0  0  0  0  0  0  0
   33.9518   -4.8675    2.5991 H   0  0  0  0  0  0  0  0  0  0  0  0
   33.9477   -7.3473    2.7954 H   0  0  0  0  0  0  0  0  0  0  0  0
   32.7168   -7.8030   -1.0993 H   0  0  0  0  0  0  0  0  0  0  0  0
   32.6761   -5.3432   -1.4690 H   0  0  0  0  0  0  0  0  0  0  0  0
   35.9119   -4.4384    0.7828 H   0  0  0  0  0  0  0  0  0  0  0  0
   37.7914   -2.5169    0.5706 H   0  0  0  0  0  0  0  0  0  0  0  0
   37.7435    2.5433   -0.6528 H   0  0  0  0  0  0  0  0  0  0  0  0
   35.8308    4.4339   -0.8532 H   0  0  0  0  0  0  0  0  0  0  0  0
   32.0972    4.8872   -2.3480 H   0  0  0  0  0  0  0  0  0  0  0  0
   32.1222    7.3690   -2.5104 H   0  0  0  0  0  0  0  0  0  0  0  0
   34.3039    7.7230    0.9546 H   0  0  0  0  0  0  0  0  0  0  0  0
   34.3658    5.2570    1.2743 H   0  0  0  0  0  0  0  0  0  0  0  0
   30.6252    4.4581   -0.1415 H   0  0  0  0  0  0  0  0  0  0  0  0
   28.7499    2.5234    0.0054 H   0  0  0  0  0  0  0  0  0  0  0  0
   81.2763    0.0371   -0.0184 Ni  0  0  0  0  0  0  0  0  0  0  0  0
   84.6728    0.0502   -0.0583 C   0  0  0  0  0  0  0  0  0  0  0  0
   84.0183    1.2239   -0.3674 C   0  0  0  0  0  0  0  0  0  0  0  0
   84.6975    2.4419   -0.6890 C   0  0  0  0  0  0  0  0  0  0  0  0
   83.7423    3.3847   -0.8610 C   0  0  0  0  0  0  0  0  0  0  0  0
   82.4792    2.7387   -0.6525 C   0  0  0  0  0  0  0  0  0  0  0  0
   82.6586    1.4102   -0.3581 N   0  0  0  0  0  0  0  0  0  0  0  0
   81.2606    3.4033   -0.6756 C   0  0  0  0  0  0  0  0  0  0  0  0
   81.2530    4.8598   -0.9537 C   0  0  0  0  0  0  0  0  0  0  0  0
   80.8583    5.7789    0.0170 C   0  0  0  0  0  0  0  0  0  0  0  0
   80.8710    7.1308   -0.2893 C   0  0  0  0  0  0  0  0  0  0  0  0
   81.2396    7.6008   -1.4765 N   0  0  0  0  0  0  0  0  0  0  0  0
   81.6146    6.7303   -2.4081 C   0  0  0  0  0  0  0  0  0  0  0  0
   81.6407    5.3608   -2.1953 C   0  0  0  0  0  0  0  0  0  0  0  0
   80.0489    2.7648   -0.4517 C   0  0  0  0  0  0  0  0  0  0  0  0
   78.7827    3.4307   -0.5055 C   0  0  0  0  0  0  0  0  0  0  0  0
   77.8341    2.4820   -0.3215 C   0  0  0  0  0  0  0  0  0  0  0  0
   79.8764    1.4168   -0.2308 N   0  0  0  0  0  0  0  0  0  0  0  0
   78.5218    1.2404   -0.1616 C   0  0  0  0  0  0  0  0  0  0  0  0
   77.8599    0.0199   -0.0045 C   0  0  0  0  0  0  0  0  0  0  0  0
   78.5363   -1.1921    0.1561 C   0  0  0  0  0  0  0  0  0  0  0  0
   77.8639   -2.4444    0.2961 C   0  0  0  0  0  0  0  0  0  0  0  0
   78.8234   -3.3817    0.4831 C   0  0  0  0  0  0  0  0  0  0  0  0
   80.0799   -2.6959    0.4645 C   0  0  0  0  0  0  0  0  0  0  0  0
   79.8924   -1.3511    0.2363 N   0  0  0  0  0  0  0  0  0  0  0  0
   81.3011   -3.3253    0.6625 C   0  0  0  0  0  0  0  0  0  0  0  0
   81.3106   -4.7769    0.9600 C   0  0  0  0  0  0  0  0  0  0  0  0
   81.9137   -5.6893    0.0953 C   0  0  0  0  0  0  0  0  0  0  0  0
   81.8967   -7.0373    0.4172 C   0  0  0  0  0  0  0  0  0  0  0  0
   81.3325   -7.5107    1.5236 N   0  0  0  0  0  0  0  0  0  0  0  0
   80.7568   -6.6471    2.3539 C   0  0  0  0  0  0  0  0  0  0  0  0
   80.7180   -5.2822    2.1164 C   0  0  0  0  0  0  0  0  0  0  0  0
   82.5145   -2.6539    0.5911 C   0  0  0  0  0  0  0  0  0  0  0  0
   83.7849   -3.2764    0.8241 C   0  0  0  0  0  0  0  0  0  0  0  0
   84.7290   -2.3296    0.6156 C   0  0  0  0  0  0  0  0  0  0  0  0
   84.0344   -1.1278    0.2675 C   0  0  0  0  0  0  0  0  0  0  0  0
   82.6766   -1.3280    0.2764 N   0  0  0  0  0  0  0  0  0  0  0  0
   85.7566    0.0557   -0.0654 H   0  0  0  0  0  0  0  0  0  0  0  0
   85.7688    2.5436   -0.7585 H   0  0  0  0  0  0  0  0  0  0  0  0
   83.8679    4.4290   -1.0960 H   0  0  0  0  0  0  0  0  0  0  0  0
   80.5587    5.4410    1.0018 H   0  0  0  0  0  0  0  0  0  0  0  0
   80.5720    7.8669    0.4511 H   0  0  0  0  0  0  0  0  0  0  0  0
   81.9076    7.1451   -3.3681 H   0  0  0  0  0  0  0  0  0  0  0  0
   81.9447    4.6869   -2.9873 H   0  0  0  0  0  0  0  0  0  0  0  0
   78.6475    4.4860   -0.6766 H   0  0  0  0  0  0  0  0  0  0  0  0
   76.7622    2.5951   -0.3017 H   0  0  0  0  0  0  0  0  0  0  0  0
   76.7946   -2.5734    0.2527 H   0  0  0  0  0  0  0  0  0  0  0  0
   78.7023   -4.4444    0.6148 H   0  0  0  0  0  0  0  0  0  0  0  0
   82.3764   -5.3496   -0.8236 H   0  0  0  0  0  0  0  0  0  0  0  0
   82.3562   -7.7678   -0.2422 H   0  0  0  0  0  0  0  0  0  0  0  0
   80.3064   -7.0642    3.2499 H   0  0  0  0  0  0  0  0  0  0  0  0
   80.2464   -4.6138    2.8270 H   0  0  0  0  0  0  0  0  0  0  0  0
   83.9225   -4.3051    1.1147 H   0  0  0  0  0  0  0  0  0  0  0  0
   85.8013   -2.4159    0.6889 H   0  0  0  0  0  0  0  0  0  0  0  0
   41.8918    0.0372   -0.0360 C   0  0  0  0  0  0  0  0  0  0  0  0
   40.6642    0.0327   -0.0318 C   0  0  0  0  0  0  0  0  0  0  0  0
   39.3188    0.0269   -0.0279 C   0  0  0  0  0  0  0  0  0  0  0  0
   38.0957    0.0182   -0.0242 C   0  0  0  0  0  0  0  0  0  0  0  0
   43.2370    0.0378   -0.0396 C   0  0  0  0  0  0  0  0  0  0  0  0
   44.4603    0.0366   -0.0425 C   0  0  0  0  0  0  0  0  0  0  0  0
   57.8918    0.0324   -0.0079 C   0  0  0  0  0  0  0  0  0  0  0  0
   56.6639    0.0314   -0.0117 C   0  0  0  0  0  0  0  0  0  0  0  0
   55.3196    0.0285   -0.0175 C   0  0  0  0  0  0  0  0  0  0  0  0
   54.0962    0.0250   -0.0235 C   0  0  0  0  0  0  0  0  0  0  0  0
   59.2360    0.0318   -0.0061 C   0  0  0  0  0  0  0  0  0  0  0  0
   60.4595    0.0285   -0.0053 C   0  0  0  0  0  0  0  0  0  0  0  0
   73.8861   -0.0022   -0.0143 C   0  0  0  0  0  0  0  0  0  0  0  0
   72.6583   -0.0097   -0.0173 C   0  0  0  0  0  0  0  0  0  0  0  0
   71.3133   -0.0127   -0.0183 C   0  0  0  0  0  0  0  0  0  0  0  0
   70.0899   -0.0130   -0.0184 C   0  0  0  0  0  0  0  0  0  0  0  0
   75.2312    0.0051   -0.0110 C   0  0  0  0  0  0  0  0  0  0  0  0
   76.4545    0.0108   -0.0084 C   0  0  0  0  0  0  0  0  0  0  0  0
   49.2787    0.0186   -0.0463 Ni  0  0  0  0  0  0  0  0  0  0  0  0
   45.8651    0.0312   -0.0446 C   0  0  0  0  0  0  0  0  0  0  0  0
   46.5355   -0.7207    0.9246 C   0  0  0  0  0  0  0  0  0  0  0  0
   45.8652   -1.4574    1.9477 C   0  0  0  0  0  0  0  0  0  0  0  0
   46.8180   -2.1557    2.6117 C   0  0  0  0  0  0  0  0  0  0  0  0
   48.0670   -1.8489    1.9842 C   0  0  0  0  0  0  0  0  0  0  0  0
   47.8862   -0.9308    0.9750 N   0  0  0  0  0  0  0  0  0  0  0  0
   49.2716   -2.4547    2.3172 C   0  0  0  0  0  0  0  0  0  0  0  0
   49.2682   -3.5264    3.3392 C   0  0  0  0  0  0  0  0  0  0  0  0
   48.5445   -4.7033    3.1516 C   0  0  0  0  0  0  0  0  0  0  0  0
   48.5761   -5.6795    4.1350 C   0  0  0  0  0  0  0  0  0  0  0  0
   49.2643   -5.5478    5.2643 N   0  0  0  0  0  0  0  0  0  0  0  0
   49.9542   -4.4275    5.4524 C   0  0  0  0  0  0  0  0  0  0  0  0
   49.9895   -3.3977    4.5255 C   0  0  0  0  0  0  0  0  0  0  0  0
   50.4797   -2.0965    1.7340 C   0  0  0  0  0  0  0  0  0  0  0  0
   51.7271   -2.7370    2.0196 C   0  0  0  0  0  0  0  0  0  0  0  0
   52.6845   -2.0382    1.3629 C   0  0  0  0  0  0  0  0  0  0  0  0
   50.6663   -1.0444    0.8663 N   0  0  0  0  0  0  0  0  0  0  0  0
   52.0180   -0.9821    0.6704 C   0  0  0  0  0  0  0  0  0  0  0  0
   52.6924    0.0216   -0.0313 C   0  0  0  0  0  0  0  0  0  0  0  0
   52.0216    1.0202   -0.7437 C   0  0  0  0  0  0  0  0  0  0  0  0
   52.6925    2.0715   -1.4393 C   0  0  0  0  0  0  0  0  0  0  0  0
   51.7403    2.7608   -2.1134 C   0  0  0  0  0  0  0  0  0  0  0  0
   50.4914    2.1212   -1.8324 C   0  0  0  0  0  0  0  0  0  0  0  0
   50.6717    1.0774   -0.9533 N   0  0  0  0  0  0  0  0  0  0  0  0
   49.2873    2.4758   -2.4258 C   0  0  0  0  0  0  0  0  0  0  0  0
   49.2928    3.5365   -3.4595 C   0  0  0  0  0  0  0  0  0  0  0  0
   50.0129    3.3876   -4.6441 C   0  0  0  0  0  0  0  0  0  0  0  0
   49.9857    4.4064   -5.5834 C   0  0  0  0  0  0  0  0  0  0  0  0
   49.3057    5.5348   -5.4082 N   0  0  0  0  0  0  0  0  0  0  0  0
   48.6196    5.6861   -4.2800 C   0  0  0  0  0  0  0  0  0  0  0  0
   48.5798    4.7219   -3.2852 C   0  0  0  0  0  0  0  0  0  0  0  0
   48.0789    1.8797   -2.0897 C   0  0  0  0  0  0  0  0  0  0  0  0
   46.8317    2.1916   -2.7181 C   0  0  0  0  0  0  0  0  0  0  0  0
   45.8739    1.5087   -2.0454 C   0  0  0  0  0  0  0  0  0  0  0  0
   46.5397    0.7742   -1.0177 C   0  0  0  0  0  0  0  0  0  0  0  0
   47.8919    0.9719   -1.0723 N   0  0  0  0  0  0  0  0  0  0  0  0
   44.8016   -1.4354    2.1217 H   0  0  0  0  0  0  0  0  0  0  0  0
   46.6964   -2.8180    3.4532 H   0  0  0  0  0  0  0  0  0  0  0  0
   47.9780   -4.8587    2.2411 H   0  0  0  0  0  0  0  0  0  0  0  0
   48.0248   -6.6068    4.0096 H   0  0  0  0  0  0  0  0  0  0  0  0
   50.5040   -4.3486    6.3857 H   0  0  0  0  0  0  0  0  0  0  0  0
   50.5574   -2.4970    4.7263 H   0  0  0  0  0  0  0  0  0  0  0  0
   51.8451   -3.6095    2.6411 H   0  0  0  0  0  0  0  0  0  0  0  0
   53.7486   -2.2090    1.3407 H   0  0  0  0  0  0  0  0  0  0  0  0
   53.7560    2.2447   -1.4086 H   0  0  0  0  0  0  0  0  0  0  0  0
   51.8623    3.6267   -2.7432 H   0  0  0  0  0  0  0  0  0  0  0  0
   50.5735    2.4800   -4.8338 H   0  0  0  0  0  0  0  0  0  0  0  0
   50.5340    4.3116   -6.5161 H   0  0  0  0  0  0  0  0  0  0  0  0
   48.0771    6.6199   -4.1652 H   0  0  0  0  0  0  0  0  0  0  0  0
   48.0153    4.8929   -2.3763 H   0  0  0  0  0  0  0  0  0  0  0  0
   46.7147    2.8475   -3.5651 H   0  0  0  0  0  0  0  0  0  0  0  0
   44.8097    1.4948   -2.2168 H   0  0  0  0  0  0  0  0  0  0  0  0
   65.2744   -0.0015   -0.0211 Ni  0  0  0  0  0  0  0  0  0  0  0  0
   61.8632    0.0204   -0.0091 C   0  0  0  0  0  0  0  0  0  0  0  0
   62.5350   -0.7224    0.9666 C   0  0  0  0  0  0  0  0  0  0  0  0
   61.8684   -1.4448    2.0024 C   0  0  0  0  0  0  0  0  0  0  0  0
   62.8211   -2.1500    2.6595 C   0  0  0  0  0  0  0  0  0  0  0  0
   64.0659   -1.8623    2.0148 C   0  0  0  0  0  0  0  0  0  0  0  0
   63.8835   -0.9451    1.0049 N   0  0  0  0  0  0  0  0  0  0  0  0
   65.2664   -2.4882    2.3244 C   0  0  0  0  0  0  0  0  0  0  0  0
   65.2635   -3.5642    3.3415 C   0  0  0  0  0  0  0  0  0  0  0  0
   64.5076   -4.7231    3.1682 C   0  0  0  0  0  0  0  0  0  0  0  0
   64.5391   -5.7027    4.1482 C   0  0  0  0  0  0  0  0  0  0  0  0
   65.2567   -5.5910    5.2613 N   0  0  0  0  0  0  0  0  0  0  0  0
   65.9776   -4.4880    5.4356 C   0  0  0  0  0  0  0  0  0  0  0  0
   66.0157   -3.4566    4.5107 C   0  0  0  0  0  0  0  0  0  0  0  0
   66.4697   -2.1443    1.7216 C   0  0  0  0  0  0  0  0  0  0  0  0
   67.7122   -2.8065    1.9774 C   0  0  0  0  0  0  0  0  0  0  0  0
   68.6699   -2.1082    1.3200 C   0  0  0  0  0  0  0  0  0  0  0  0
   66.6584   -1.0813    0.8679 N   0  0  0  0  0  0  0  0  0  0  0  0
   68.0088   -1.0304    0.6568 C   0  0  0  0  0  0  0  0  0  0  0  0
   68.6856   -0.0111   -0.0202 C   0  0  0  0  0  0  0  0  0  0  0  0
   68.0151    1.0091   -0.7021 C   0  0  0  0  0  0  0  0  0  0  0  0
   68.6829    2.0778   -1.3735 C   0  0  0  0  0  0  0  0  0  0  0  0
   67.7302    2.7733   -2.0411 C   0  0  0  0  0  0  0  0  0  0  0  0
   66.4838    2.1206   -1.7803 C   0  0  0  0  0  0  0  0  0  0  0  0
   66.6654    1.0647   -0.9166 N   0  0  0  0  0  0  0  0  0  0  0  0
   65.2822    2.4687   -2.3837 C   0  0  0  0  0  0  0  0  0  0  0  0
   65.2865    3.5339   -3.4123 C   0  0  0  0  0  0  0  0  0  0  0  0
   66.0266    3.4019   -4.5866 C   0  0  0  0  0  0  0  0  0  0  0  0
   65.9942    4.4227   -5.5235 C   0  0  0  0  0  0  0  0  0  0  0  0
   65.2908    5.5378   -5.3555 N   0  0  0  0  0  0  0  0  0  0  0  0
   64.5858    5.6733   -4.2369 C   0  0  0  0  0  0  0  0  0  0  0  0
   64.5494    4.7057   -3.2453 C   0  0  0  0  0  0  0  0  0  0  0  0
   64.0764    1.8597   -2.0621 C   0  0  0  0  0  0  0  0  0  0  0  0
   62.8308    2.1600   -2.6995 C   0  0  0  0  0  0  0  0  0  0  0  0
   61.8732    1.4754   -2.0279 C   0  0  0  0  0  0  0  0  0  0  0  0
   62.5377    0.7512   -0.9920 C   0  0  0  0  0  0  0  0  0  0  0  0
   63.8888    0.9539   -1.0427 N   0  0  0  0  0  0  0  0  0  0  0  0
   60.8071   -1.4095    2.1880 H   0  0  0  0  0  0  0  0  0  0  0  0
   62.7013   -2.8059    3.5062 H   0  0  0  0  0  0  0  0  0  0  0  0
   63.9162   -4.8624    2.2711 H   0  0  0  0  0  0  0  0  0  0  0  0
   63.9628   -6.6161    4.0337 H   0  0  0  0  0  0  0  0  0  0  0  0
   66.5508   -4.4250    6.3559 H   0  0  0  0  0  0  0  0  0  0  0  0
   66.6090   -2.5700    4.7004 H   0  0  0  0  0  0  0  0  0  0  0  0
   67.8268   -3.6917    2.5813 H   0  0  0  0  0  0  0  0  0  0  0  0
   69.7314   -2.2923    1.2811 H   0  0  0  0  0  0  0  0  0  0  0  0
   69.7451    2.2575   -1.3342 H   0  0  0  0  0  0  0  0  0  0  0  0
   67.8504    3.6512   -2.6545 H   0  0  0  0  0  0  0  0  0  0  0  0
   66.6058    2.5049   -4.7709 H   0  0  0  0  0  0  0  0  0  0  0  0
   66.5572    4.3406   -6.4486 H   0  0  0  0  0  0  0  0  0  0  0  0
   64.0242    6.5964   -4.1277 H   0  0  0  0  0  0  0  0  0  0  0  0
   63.9687    4.8637   -2.3444 H   0  0  0  0  0  0  0  0  0  0  0  0
   62.7141    2.8101   -3.5510 H   0  0  0  0  0  0  0  0  0  0  0  0
   60.8099    1.4546   -2.2045 H   0  0  0  0  0  0  0  0  0  0  0  0
  2  3  4  0  0  0  0
  3  4  4  0  0  0  0
  4  5  2  0  0  0  0
  5  6  4  0  0  0  0
  1  7  1  0  0  0  0
  3  7  4  0  0  0  0
  6  7  4  0  0  0  0
  6  8  4  0  0  0  0
  8  9  1  0  0  0  0
  9 10  4  0  0  0  0
 10 11  4  0  0  0  0
 11 12  4  0  0  0  0
 12 13  4  0  0  0  0
  9 14  4  0  0  0  0
 13 14  4  0  0  0  0
  8 15  4  0  0  0  0
 15 16  4  0  0  0  0
 16 17  2  0  0  0  0
  1 18  1  0  0  0  0
 15 18  4  0  0  0  0
 17 19  4  0  0  0  0
 18 19  4  0  0  0  0
 19 20  4  0  0  0  0
 20 21  4  0  0  0  0
 21 22  4  0  0  0  0
 22 23  2  0  0  0  0
 23 24  4  0  0  0  0
  1 25  1  0  0  0  0
 21 25  4  0  0  0  0
 24 25  4  0  0  0  0
 24 26  4  0  0  0  0
 26 27  1  0  0  0  0
 27 28  4  0  0  0  0
 28 29  4  0  0  0  0
 29 30  4  0  0  0  0
 30 31  4  0  0  0  0
 27 32  4  0  0  0  0
 31 32  4  0  0  0  0
 26 33  4  0  0  0  0
 33 34  4  0  0  0  0
 34 35  2  0  0  0  0
  2 36  4  0  0  0  0
 35 36  4  0  0  0  0
  1 37  1  0  0  0  0
 33 37  4  0  0  0  0
 36 37  4  0  0  0  0
  2 38  1  0  0  0  0
  4 39  1  0  0  0  0
  5 40  1  0  0  0  0
 10 41  1  0  0  0  0
 11 42  1  0  0  0  0
 13 43  1  0  0  0  0
 14 44  1  0  0  0  0
 16 45  1  0  0  0  0
 17 46  1  0  0  0  0
 22 47  1  0  0  0  0
 23 48  1  0  0  0  0
 28 49  1  0  0  0  0
 29 50  1  0  0  0  0
 31 51  1  0  0  0  0
 32 52  1  0  0  0  0
 34 53  1  0  0  0  0
 35 54  1  0  0  0  0
 56 57  4  0  0  0  0
 57 58  4  0  0  0  0
 58 59  2  0  0  0  0
 59 60  4  0  0  0  0
 55 61  1  0  0  0  0
 57 61  4  0  0  0  0
 60 61  4  0  0  0  0
 60 62  4  0  0  0  0
 62 63  1  0  0  0  0
 63 64  4  0  0  0  0
 64 65  4  0  0  0  0
 65 66  4  0  0  0  0
 66 67  4  0  0  0  0
 63 68  4  0  0  0  0
 67 68  4  0  0  0  0
 62 69  4  0  0  0  0
 69 70  4  0  0  0  0
 70 71  2  0  0  0  0
 55 72  1  0  0  0  0
 69 72  4  0  0  0  0
 71 73  4  0  0  0  0
 72 73  4  0  0  0  0
 73 74  4  0  0  0  0
 74 75  4  0  0  0  0
 75 76  4  0  0  0  0
 76 77  2  0  0  0  0
 77 78  4  0  0  0  0
 55 79  1  0  0  0  0
 75 79  4  0  0  0  0
 78 79  4  0  0  0  0
 78 80  4  0  0  0  0
 80 81  1  0  0  0  0
 81 82  4  0  0  0  0
 82 83  4  0  0  0  0
 83 84  4  0  0  0  0
 84 85  4  0  0  0  0
 81 86  4  0  0  0  0
 85 86  4  0  0  0  0
 80 87  4  0  0  0  0
 87 88  4  0  0  0  0
 88 89  2  0  0  0  0
 56 90  4  0  0  0  0
 89 90  4  0  0  0  0
 55 91  1  0  0  0  0
 87 91  4  0  0  0  0
 90 91  4  0  0  0  0
 56 92  1  0  0  0  0
 58 93  1  0  0  0  0
 59 94  1  0  0  0  0
 64 95  1  0  0  0  0
 65 96  1  0  0  0  0
 67 97  1  0  0  0  0
 68 98  1  0  0  0  0
 70 99  1  0  0  0  0
 71100  1  0  0  0  0
 76101  1  0  0  0  0
 77102  1  0  0  0  0
 82103  1  0  0  0  0
 83104  1  0  0  0  0
 85105  1  0  0  0  0
 86106  1  0  0  0  0
 88107  1  0  0  0  0
 89108  1  0  0  0  0
109110  3  0  0  0  0
110111  4  0  0  0  0
 20112  4  0  0  0  0
111112  3  0  0  0  0
109113  4  0  0  0  0
113114  3  0  0  0  0
115116  3  0  0  0  0
116117  4  0  0  0  0
117118  3  0  0  0  0
115119  4  0  0  0  0
119120  3  0  0  0  0
121122  3  0  0  0  0
122123  4  0  0  0  0
123124  3  0  0  0  0
121125  4  0  0  0  0
 74126  4  0  0  0  0
125126  3  0  0  0  0
114128  4  0  0  0  0
128129  4  0  0  0  0
129130  4  0  0  0  0
130131  2  0  0  0  0
131132  4  0  0  0  0
127133  1  0  0  0  0
129133  4  0  0  0  0
132133  4  0  0  0  0
132134  4  0  0  0  0
134135  1  0  0  0  0
135136  4  0  0  0  0
136137  4  0  0  0  0
137138  4  0  0  0  0
138139  4  0  0  0  0
135140  4  0  0  0  0
139140  4  0  0  0  0
134141  4  0  0  0  0
141142  4  0  0  0  0
142143  2  0  0  0  0
127144  1  0  0  0  0
141144  4  0  0  0  0
143145  4  0  0  0  0
144145  4  0  0  0  0
118146  4  0  0  0  0
145146  4  0  0  0  0
146147  4  0  0  0  0
147148  4  0  0  0  0
148149  2  0  0  0  0
149150  4  0  0  0  0
127151  1  0  0  0  0
147151  4  0  0  0  0
150151  4  0  0  0  0
150152  4  0  0  0  0
152153  1  0  0  0  0
153154  4  0  0  0  0
154155  4  0  0  0  0
155156  4  0  0  0  0
156157  4  0  0  0  0
153158  4  0  0  0  0
157158  4  0  0  0  0
152159  4  0  0  0  0
159160  4  0  0  0  0
160161  2  0  0  0  0
128162  4  0  0  0  0
161162  4  0  0  0  0
127163  1  0  0  0  0
159163  4  0  0  0  0
162163  4  0  0  0  0
130164  1  0  0  0  0
131165  1  0  0  0  0
136166  1  0  0  0  0
137167  1  0  0  0  0
139168  1  0  0  0  0
140169  1  0  0  0  0
142170  1  0  0  0  0
143171  1  0  0  0  0
148172  1  0  0  0  0
149173  1  0  0  0  0
154174  1  0  0  0  0
155175  1  0  0  0  0
157176  1  0  0  0  0
158177  1  0  0  0  0
160178  1  0  0  0  0
161179  1  0  0  0  0
120181  4  0  0  0  0
181182  4  0  0  0  0
182183  4  0  0  0  0
183184  2  0  0  0  0
184185  4  0  0  0  0
180186  1  0  0  0  0
182186  4  0  0  0  0
185186  4  0  0  0  0
185187  4  0  0  0  0
187188  1  0  0  0  0
188189  4  0  0  0  0
189190  4  0  0  0  0
190191  4  0  0  0  0
191192  4  0  0  0  0
188193  4  0  0  0  0
192193  4  0  0  0  0
187194  4  0  0  0  0
194195  4  0  0  0  0
195196  2  0  0  0  0
180197  1  0  0  0  0
194197  4  0  0  0  0
196198  4  0  0  0  0
197198  4  0  0  0  0
124199  4  0  0  0  0
198199  4  0  0  0  0
199200  4  0  0  0  0
200201  4  0  0  0  0
201202  2  0  0  0  0
202203  4  0  0  0  0
180204  1  0  0  0  0
200204  4  0  0  0  0
203204  4  0  0  0  0
203205  4  0  0  0  0
205206  1  0  0  0  0
206207  4  0  0  0  0
207208  4  0  0  0  0
208209  4  0  0  0  0
209210  4  0  0  0  0
206211  4  0  0  0  0
210211  4  0  0  0  0
205212  4  0  0  0  0
212213  4  0  0  0  0
213214  2  0  0  0  0
181215  4  0  0  0  0
214215  4  0  0  0  0
180216  1  0  0  0  0
212216  4  0  0  0  0
215216  4  0  0  0  0
183217  1  0  0  0  0
184218  1  0  0  0  0
189219  1  0  0  0  0
190220  1  0  0  0  0
192221  1  0  0  0  0
193222  1  0  0  0  0
195223  1  0  0  0  0
196224  1  0  0  0  0
201225  1  0  0  0  0
202226  1  0  0  0  0
207227  1  0  0  0  0
208228  1  0  0  0  0
210229  1  0  0  0  0
211230  1  0  0  0  0
213231  1  0  0  0  0
214232  1  0  0  0  0
M  END
