 xtb: 6.5.1 (b24c23e)
          07302208453D

156175  0     0  0            999 V2000
   13.2062    0.0373    0.0120 Cu  0  0  0  0  0  0  0  0  0  0  0  0
    9.7925    0.1202   -0.0514 C   0  0  0  0  0  0  0  0  0  0  0  0
   10.4373    1.2460    0.4403 C   0  0  0  0  0  0  0  0  0  0  0  0
    9.7765    2.4259    0.9228 C   0  0  0  0  0  0  0  0  0  0  0  0
   10.7460    3.2931    1.3075 C   0  0  0  0  0  0  0  0  0  0  0  0
   12.0079    2.6503    1.0614 C   0  0  0  0  0  0  0  0  0  0  0  0
   11.7896    1.4088    0.5377 N   0  0  0  0  0  0  0  0  0  0  0  0
   13.2557    3.2185    1.3164 C   0  0  0  0  0  0  0  0  0  0  0  0
   13.2772    4.6003    1.8797 C   0  0  0  0  0  0  0  0  0  0  0  0
   13.2372    5.7033    1.0220 C   0  0  0  0  0  0  0  0  0  0  0  0
   13.1737    5.4950   -0.4678 C   0  0  0  0  0  0  0  0  0  0  0  0
   13.2546    6.9861    1.5567 C   0  0  0  0  0  0  0  0  0  0  0  0
   13.3099    7.1863    2.9323 C   0  0  0  0  0  0  0  0  0  0  0  0
   13.3478    8.5805    3.4977 C   0  0  0  0  0  0  0  0  0  0  0  0
   13.3505    6.0815    3.7765 C   0  0  0  0  0  0  0  0  0  0  0  0
   13.3343    4.7897    3.2633 C   0  0  0  0  0  0  0  0  0  0  0  0
   13.3767    3.5989    4.1837 C   0  0  0  0  0  0  0  0  0  0  0  0
   14.4836    2.6016    1.0849 C   0  0  0  0  0  0  0  0  0  0  0  0
   15.7612    3.2022    1.3438 C   0  0  0  0  0  0  0  0  0  0  0  0
   16.7057    2.2920    0.9943 C   0  0  0  0  0  0  0  0  0  0  0  0
   14.6697    1.3409    0.5819 N   0  0  0  0  0  0  0  0  0  0  0  0
   16.0122    1.1313    0.5195 C   0  0  0  0  0  0  0  0  0  0  0  0
   16.6429   -0.0414    0.0645 C   0  0  0  0  0  0  0  0  0  0  0  0
   15.9742   -1.1861   -0.4062 C   0  0  0  0  0  0  0  0  0  0  0  0
   16.6280   -2.3786   -0.8578 C   0  0  0  0  0  0  0  0  0  0  0  0
   15.6538   -3.2459   -1.2344 C   0  0  0  0  0  0  0  0  0  0  0  0
   14.3976   -2.5865   -1.0163 C   0  0  0  0  0  0  0  0  0  0  0  0
   14.6259   -1.3347   -0.5085 N   0  0  0  0  0  0  0  0  0  0  0  0
   13.1503   -3.1448   -1.2894 C   0  0  0  0  0  0  0  0  0  0  0  0
   13.1230   -4.5263   -1.8532 C   0  0  0  0  0  0  0  0  0  0  0  0
   13.2186   -4.7184   -3.2351 C   0  0  0  0  0  0  0  0  0  0  0  0
   13.3549   -3.5312   -4.1509 C   0  0  0  0  0  0  0  0  0  0  0  0
   13.1863   -6.0085   -3.7492 C   0  0  0  0  0  0  0  0  0  0  0  0
   13.0606   -7.1109   -2.9083 C   0  0  0  0  0  0  0  0  0  0  0  0
   13.0197   -8.4988   -3.4890 C   0  0  0  0  0  0  0  0  0  0  0  0
   12.9670   -6.9084   -1.5364 C   0  0  0  0  0  0  0  0  0  0  0  0
   12.9970   -5.6255   -1.0000 C   0  0  0  0  0  0  0  0  0  0  0  0
   12.8936   -5.4150    0.4872 C   0  0  0  0  0  0  0  0  0  0  0  0
   11.9228   -2.5166   -1.0794 C   0  0  0  0  0  0  0  0  0  0  0  0
   10.6412   -3.0979   -1.3726 C   0  0  0  0  0  0  0  0  0  0  0  0
    9.7013   -2.1835   -1.0254 C   0  0  0  0  0  0  0  0  0  0  0  0
   10.4000   -1.0363   -0.5185 C   0  0  0  0  0  0  0  0  0  0  0  0
   11.7456   -1.2650   -0.5647 N   0  0  0  0  0  0  0  0  0  0  0  0
    8.7079    0.1467   -0.0722 H   0  0  0  0  0  0  0  0  0  0  0  0
    8.7066    2.5591    0.9577 H   0  0  0  0  0  0  0  0  0  0  0  0
   10.6309    4.2813    1.7239 H   0  0  0  0  0  0  0  0  0  0  0  0
   12.2497    4.9802   -0.7385 H   0  0  0  0  0  0  0  0  0  0  0  0
   14.0094    4.8769   -0.8008 H   0  0  0  0  0  0  0  0  0  0  0  0
   13.2094    6.4473   -0.9961 H   0  0  0  0  0  0  0  0  0  0  0  0
   13.2229    7.8422    0.8906 H   0  0  0  0  0  0  0  0  0  0  0  0
   12.9156    8.6063    4.4983 H   0  0  0  0  0  0  0  0  0  0  0  0
   14.3821    8.9261    3.5653 H   0  0  0  0  0  0  0  0  0  0  0  0
   12.8004    9.2737    2.8585 H   0  0  0  0  0  0  0  0  0  0  0  0
   13.3932    6.2280    4.8508 H   0  0  0  0  0  0  0  0  0  0  0  0
   14.2811    3.0143    4.0040 H   0  0  0  0  0  0  0  0  0  0  0  0
   13.3663    3.9126    5.2271 H   0  0  0  0  0  0  0  0  0  0  0  0
   12.5184    2.9490    4.0037 H   0  0  0  0  0  0  0  0  0  0  0  0
   15.9059    4.1947    1.7397 H   0  0  0  0  0  0  0  0  0  0  0  0
   17.7783    2.3883    1.0487 H   0  0  0  0  0  0  0  0  0  0  0  0
   17.6964   -2.5234   -0.8788 H   0  0  0  0  0  0  0  0  0  0  0  0
   15.7648   -4.2451   -1.6241 H   0  0  0  0  0  0  0  0  0  0  0  0
   12.5265   -2.8370   -3.9986 H   0  0  0  0  0  0  0  0  0  0  0  0
   13.3632   -3.8436   -5.1948 H   0  0  0  0  0  0  0  0  0  0  0  0
   14.2823   -2.9952   -3.9396 H   0  0  0  0  0  0  0  0  0  0  0  0
   13.2596   -6.1586   -4.8215 H   0  0  0  0  0  0  0  0  0  0  0  0
   13.8808   -8.6660   -4.1381 H   0  0  0  0  0  0  0  0  0  0  0  0
   13.0235   -9.2526   -2.7018 H   0  0  0  0  0  0  0  0  0  0  0  0
   12.1167   -8.6292   -4.0889 H   0  0  0  0  0  0  0  0  0  0  0  0
   12.8694   -7.7609   -0.8722 H   0  0  0  0  0  0  0  0  0  0  0  0
   11.9874   -4.8552    0.7275 H   0  0  0  0  0  0  0  0  0  0  0  0
   13.7471   -4.8392    0.8498 H   0  0  0  0  0  0  0  0  0  0  0  0
   12.8640   -6.3681    1.0144 H   0  0  0  0  0  0  0  0  0  0  0  0
   10.4936   -4.0801   -1.7926 H   0  0  0  0  0  0  0  0  0  0  0  0
    8.6282   -2.2645   -1.1009 H   0  0  0  0  0  0  0  0  0  0  0  0
   31.8233   -0.0376   -0.0188 Cu  0  0  0  0  0  0  0  0  0  0  0  0
   35.2371   -0.0527   -0.1204 C   0  0  0  0  0  0  0  0  0  0  0  0
   34.5929   -1.2055   -0.5456 C   0  0  0  0  0  0  0  0  0  0  0  0
   35.2542   -2.3907   -1.0141 C   0  0  0  0  0  0  0  0  0  0  0  0
   34.2850   -3.2831   -1.3373 C   0  0  0  0  0  0  0  0  0  0  0  0
   33.0229   -2.6492   -1.0703 C   0  0  0  0  0  0  0  0  0  0  0  0
   33.2406   -1.3908   -0.5885 N   0  0  0  0  0  0  0  0  0  0  0  0
   31.7752   -3.2361   -1.2803 C   0  0  0  0  0  0  0  0  0  0  0  0
   31.7543   -4.6232   -1.8303 C   0  0  0  0  0  0  0  0  0  0  0  0
   31.7943   -4.8257   -3.2128 C   0  0  0  0  0  0  0  0  0  0  0  0
   31.8570   -3.6440   -4.1438 C   0  0  0  0  0  0  0  0  0  0  0  0
   31.7774   -6.1216   -3.7147 C   0  0  0  0  0  0  0  0  0  0  0  0
   31.7225   -7.2183   -2.8604 C   0  0  0  0  0  0  0  0  0  0  0  0
   31.6852   -8.6159   -3.4174 C   0  0  0  0  0  0  0  0  0  0  0  0
   31.6817   -7.0052   -1.4865 C   0  0  0  0  0  0  0  0  0  0  0  0
   31.6974   -5.7176   -0.9627 C   0  0  0  0  0  0  0  0  0  0  0  0
   31.6545   -5.4952    0.5258 C   0  0  0  0  0  0  0  0  0  0  0  0
   30.5471   -2.6309   -1.0209 C   0  0  0  0  0  0  0  0  0  0  0  0
   29.2698   -3.2439   -1.2506 C   0  0  0  0  0  0  0  0  0  0  0  0
   28.3249   -2.3455   -0.8729 C   0  0  0  0  0  0  0  0  0  0  0  0
   30.3604   -1.3731   -0.5108 N   0  0  0  0  0  0  0  0  0  0  0  0
   29.0178   -1.1792   -0.4111 C   0  0  0  0  0  0  0  0  0  0  0  0
   28.3867   -0.0184    0.0727 C   0  0  0  0  0  0  0  0  0  0  0  0
   29.0548    1.1338    0.5256 C   0  0  0  0  0  0  0  0  0  0  0  0
   28.4005    2.3069    1.0246 C   0  0  0  0  0  0  0  0  0  0  0  0
   29.3742    3.1938    1.3536 C   0  0  0  0  0  0  0  0  0  0  0  0
   30.6308    2.5673    1.0554 C   0  0  0  0  0  0  0  0  0  0  0  0
   30.4031    1.3123    0.5550 N   0  0  0  0  0  0  0  0  0  0  0  0
   31.8778    3.1594    1.2457 C   0  0  0  0  0  0  0  0  0  0  0  0
   31.9049    4.5466    1.7953 C   0  0  0  0  0  0  0  0  0  0  0  0
   31.8106    5.6420    0.9310 C   0  0  0  0  0  0  0  0  0  0  0  0
   31.6753    5.4193   -0.5519 C   0  0  0  0  0  0  0  0  0  0  0  0
   31.8433    6.9288    1.4532 C   0  0  0  0  0  0  0  0  0  0  0  0
   31.9683    7.1421    2.8232 C   0  0  0  0  0  0  0  0  0  0  0  0
   32.0101    8.5456    3.3650 C   0  0  0  0  0  0  0  0  0  0  0  0
   32.0606    6.0462    3.6731 C   0  0  0  0  0  0  0  0  0  0  0  0
   32.0301    4.7491    3.1721 C   0  0  0  0  0  0  0  0  0  0  0  0
   32.1326    3.5675    4.0996 C   0  0  0  0  0  0  0  0  0  0  0  0
   33.1056    2.5610    0.9630 C   0  0  0  0  0  0  0  0  0  0  0  0
   34.3870    3.1836    1.1546 C   0  0  0  0  0  0  0  0  0  0  0  0
   35.3273    2.2839    0.7723 C   0  0  0  0  0  0  0  0  0  0  0  0
   34.6291    1.1049    0.3432 C   0  0  0  0  0  0  0  0  0  0  0  0
   33.2834    1.3016    0.4676 N   0  0  0  0  0  0  0  0  0  0  0  0
   36.3217   -0.0570   -0.1534 H   0  0  0  0  0  0  0  0  0  0  0  0
   36.3242   -2.5106   -1.0808 H   0  0  0  0  0  0  0  0  0  0  0  0
   34.4006   -4.2843   -1.7210 H   0  0  0  0  0  0  0  0  0  0  0  0
   32.7807   -3.0846   -3.9829 H   0  0  0  0  0  0  0  0  0  0  0  0
   31.0208   -2.9679   -3.9563 H   0  0  0  0  0  0  0  0  0  0  0  0
   31.8214   -3.9657   -5.1842 H   0  0  0  0  0  0  0  0  0  0  0  0
   31.8090   -6.2785   -4.7880 H   0  0  0  0  0  0  0  0  0  0  0  0
   32.1165   -9.3270   -2.7125 H   0  0  0  0  0  0  0  0  0  0  0  0
   30.6512   -8.9120   -3.6091 H   0  0  0  0  0  0  0  0  0  0  0  0
   32.2337   -8.6738   -4.3579 H   0  0  0  0  0  0  0  0  0  0  0  0
   31.6392   -7.8546   -0.8125 H   0  0  0  0  0  0  0  0  0  0  0  0
   30.7499   -4.9490    0.8004 H   0  0  0  0  0  0  0  0  0  0  0  0
   31.6649   -6.4438    1.0617 H   0  0  0  0  0  0  0  0  0  0  0  0
   32.5126   -4.9014    0.8459 H   0  0  0  0  0  0  0  0  0  0  0  0
   29.1256   -4.2340   -1.6524 H   0  0  0  0  0  0  0  0  0  0  0  0
   27.2523   -2.4529   -0.9008 H   0  0  0  0  0  0  0  0  0  0  0  0
   27.3320    2.4257    1.1090 H   0  0  0  0  0  0  0  0  0  0  0  0
   29.2628    4.1847    1.7639 H   0  0  0  0  0  0  0  0  0  0  0  0
   32.5038    4.8125   -0.9218 H   0  0  0  0  0  0  0  0  0  0  0  0
   31.6679    6.3673   -1.0889 H   0  0  0  0  0  0  0  0  0  0  0  0
   30.7479    4.8866   -0.7712 H   0  0  0  0  0  0  0  0  0  0  0  0
   31.7710    7.7795    0.7832 H   0  0  0  0  0  0  0  0  0  0  0  0
   31.1504    9.1168    3.0108 H   0  0  0  0  0  0  0  0  0  0  0  0
   32.0043    8.5447    4.4549 H   0  0  0  0  0  0  0  0  0  0  0  0
   32.9145    9.0537    3.0239 H   0  0  0  0  0  0  0  0  0  0  0  0
   32.1577    6.2015    4.7427 H   0  0  0  0  0  0  0  0  0  0  0  0
   33.0384    2.9966    3.8856 H   0  0  0  0  0  0  0  0  0  0  0  0
   31.2787    2.9016    3.9625 H   0  0  0  0  0  0  0  0  0  0  0  0
   32.1622    3.8904    5.1398 H   0  0  0  0  0  0  0  0  0  0  0  0
   34.5341    4.1831    1.5320 H   0  0  0  0  0  0  0  0  0  0  0  0
   36.4003    2.3948    0.7744 H   0  0  0  0  0  0  0  0  0  0  0  0
   18.0478   -0.0656    0.0800 C   0  0  0  0  0  0  0  0  0  0  0  0
   19.2723   -0.0698    0.0927 C   0  0  0  0  0  0  0  0  0  0  0  0
   20.6152   -0.0687    0.1041 C   0  0  0  0  0  0  0  0  0  0  0  0
   21.8457   -0.0565    0.1147 C   0  0  0  0  0  0  0  0  0  0  0  0
   23.1838   -0.0433    0.1200 C   0  0  0  0  0  0  0  0  0  0  0  0
   24.4144   -0.0288    0.1214 C   0  0  0  0  0  0  0  0  0  0  0  0
   25.7572   -0.0193    0.1132 C   0  0  0  0  0  0  0  0  0  0  0  0
   26.9818   -0.0121    0.1013 C   0  0  0  0  0  0  0  0  0  0  0  0
  2  3  4  0  0  0  0
  3  4  1  0  0  0  0
  4  5  2  0  0  0  0
  5  6  4  0  0  0  0
  1  7  1  0  0  0  0
  3  7  4  0  0  0  0
  6  7  4  0  0  0  0
  6  8  4  0  0  0  0
  8  9  1  0  0  0  0
  9 10  4  0  0  0  0
 10 11  1  0  0  0  0
 10 12  4  0  0  0  0
 12 13  4  0  0  0  0
 13 14  1  0  0  0  0
 13 15  4  0  0  0  0
  9 16  4  0  0  0  0
 15 16  4  0  0  0  0
 16 17  1  0  0  0  0
  8 18  4  0  0  0  0
 18 19  4  0  0  0  0
 19 20  2  0  0  0  0
  1 21  1  0  0  0  0
 18 21  4  0  0  0  0
 20 22  4  0  0  0  0
 21 22  4  0  0  0  0
 22 23  4  0  0  0  0
 23 24  4  0  0  0  0
 24 25  4  0  0  0  0
 25 26  2  0  0  0  0
 26 27  4  0  0  0  0
  1 28  1  0  0  0  0
 24 28  4  0  0  0  0
 27 28  4  0  0  0  0
 27 29  4  0  0  0  0
 29 30  1  0  0  0  0
 30 31  4  0  0  0  0
 31 32  1  0  0  0  0
 31 33  4  0  0  0  0
 33 34  4  0  0  0  0
 34 35  1  0  0  0  0
 34 36  4  0  0  0  0
 30 37  4  0  0  0  0
 36 37  4  0  0  0  0
 37 38  1  0  0  0  0
 29 39  4  0  0  0  0
 39 40  4  0  0  0  0
 40 41  2  0  0  0  0
  2 42  4  0  0  0  0
 41 42  1  0  0  0  0
  1 43  1  0  0  0  0
 39 43  4  0  0  0  0
 42 43  4  0  0  0  0
  2 44  1  0  0  0  0
  4 45  1  0  0  0  0
  5 46  1  0  0  0  0
 11 47  1  0  0  0  0
 11 48  1  0  0  0  0
 11 49  1  0  0  0  0
 12 50  1  0  0  0  0
 14 51  1  0  0  0  0
 14 52  1  0  0  0  0
 14 53  1  0  0  0  0
 15 54  1  0  0  0  0
 17 55  1  0  0  0  0
 17 56  1  0  0  0  0
 17 57  1  0  0  0  0
 19 58  1  0  0  0  0
 20 59  1  0  0  0  0
 25 60  1  0  0  0  0
 26 61  1  0  0  0  0
 32 62  1  0  0  0  0
 32 63  1  0  0  0  0
 32 64  1  0  0  0  0
 33 65  1  0  0  0  0
 35 66  1  0  0  0  0
 35 67  1  0  0  0  0
 35 68  1  0  0  0  0
 36 69  1  0  0  0  0
 38 70  1  0  0  0  0
 38 71  1  0  0  0  0
 38 72  1  0  0  0  0
 40 73  1  0  0  0  0
 41 74  1  0  0  0  0
 76 77  4  0  0  0  0
 77 78  1  0  0  0  0
 78 79  2  0  0  0  0
 79 80  4  0  0  0  0
 75 81  1  0  0  0  0
 77 81  4  0  0  0  0
 80 81  4  0  0  0  0
 80 82  4  0  0  0  0
 82 83  1  0  0  0  0
 83 84  4  0  0  0  0
 84 85  1  0  0  0  0
 84 86  4  0  0  0  0
 86 87  4  0  0  0  0
 87 88  1  0  0  0  0
 87 89  4  0  0  0  0
 83 90  4  0  0  0  0
 89 90  4  0  0  0  0
 90 91  1  0  0  0  0
 82 92  4  0  0  0  0
 92 93  4  0  0  0  0
 93 94  2  0  0  0  0
 75 95  1  0  0  0  0
 92 95  4  0  0  0  0
 94 96  4  0  0  0  0
 95 96  4  0  0  0  0
 96 97  4  0  0  0  0
 97 98  4  0  0  0  0
 98 99  4  0  0  0  0
 99100  2  0  0  0  0
100101  4  0  0  0  0
 75102  1  0  0  0  0
 98102  4  0  0  0  0
101102  4  0  0  0  0
101103  4  0  0  0  0
103104  1  0  0  0  0
104105  4  0  0  0  0
105106  1  0  0  0  0
105107  4  0  0  0  0
107108  4  0  0  0  0
108109  1  0  0  0  0
108110  4  0  0  0  0
104111  4  0  0  0  0
110111  4  0  0  0  0
111112  1  0  0  0  0
103113  4  0  0  0  0
113114  4  0  0  0  0
114115  2  0  0  0  0
 76116  4  0  0  0  0
115116  1  0  0  0  0
 75117  1  0  0  0  0
113117  4  0  0  0  0
116117  4  0  0  0  0
 76118  1  0  0  0  0
 78119  1  0  0  0  0
 79120  1  0  0  0  0
 85121  1  0  0  0  0
 85122  1  0  0  0  0
 85123  1  0  0  0  0
 86124  1  0  0  0  0
 88125  1  0  0  0  0
 88126  1  0  0  0  0
 88127  1  0  0  0  0
 89128  1  0  0  0  0
 91129  1  0  0  0  0
 91130  1  0  0  0  0
 91131  1  0  0  0  0
 93132  1  0  0  0  0
 94133  1  0  0  0  0
 99134  1  0  0  0  0
100135  1  0  0  0  0
106136  1  0  0  0  0
106137  1  0  0  0  0
106138  1  0  0  0  0
107139  1  0  0  0  0
109140  1  0  0  0  0
109141  1  0  0  0  0
109142  1  0  0  0  0
110143  1  0  0  0  0
112144  1  0  0  0  0
112145  1  0  0  0  0
112146  1  0  0  0  0
114147  1  0  0  0  0
115148  1  0  0  0  0
 23149  4  0  0  0  0
149150  3  0  0  0  0
150151  4  0  0  0  0
151152  3  0  0  0  0
152153  4  0  0  0  0
153154  3  0  0  0  0
154155  4  0  0  0  0
 97156  4  0  0  0  0
155156  3  0  0  0  0
M  END
