404

C 73.371492 -0.016929 -0.014802
C 74.099448 1.358678 0.081174
C 73.491693 2.593204 0.062724
C 74.514052 3.562236 0.234963
C 75.711263 2.884559 0.360909
N 75.451990 1.545240 0.211547
C 77.132820 3.521172 0.652885
C 77.169594 4.935688 1.085426
C 77.456968 5.947463 0.170772
C 77.468512 7.254948 0.624490
N 77.214459 7.619448 1.903375
C 76.940255 6.610938 2.764391
C 76.904840 5.273165 2.411116
C 78.264030 2.772693 0.553871
C 79.568370 3.309824 0.884578
C 80.471235 2.350427 0.718736
N 78.460886 1.469157 0.182675
C 79.792560 1.153858 0.261836
C 80.460483 -0.000962 -0.000876
C 79.681019 -1.279480 -0.525001
C 80.215570 -2.312509 -1.269667
C 79.190104 -3.269996 -1.470212
C 78.055899 -2.789766 -0.850899
N 78.349670 -1.553207 -0.326668
C 76.649994 -3.518588 -0.773546
C 76.625483 -4.989232 -0.917846
C 77.022102 -5.804312 0.139943
C 76.996814 -7.175822 -0.045973
N 76.612494 -7.782545 -1.193931
C 76.234558 -6.960570 -2.200858
C 76.225544 -5.579139 -2.116028
C 75.523585 -2.791113 -0.558233
C 74.204372 -3.390846 -0.459267
C 73.317944 -2.419555 -0.261713
C 74.036711 -1.170117 -0.213909
N 75.356785 -1.445403 -0.388111
H 72.294783 -0.030998 0.105159
H 72.433443 2.775078 -0.045098
H 74.385194 4.632878 0.287036
H 76.152244 0.807645 0.202776
H 77.669197 5.704434 -0.864808
H 77.690978 8.071021 -0.055109
H 76.741346 6.914871 3.786867
H 76.680342 4.500475 3.138473
H 79.781971 4.308452 1.221625
H 81.524853 2.465879 0.896422
H 81.234113 -2.379480 -1.620849
H 79.272645 -4.206162 -2.001598
H 77.669961 -0.921956 0.089533
H 77.339370 -5.366439 1.080205
H 77.297035 -7.844401 0.754220
H 75.926669 -7.457579 -3.114891
H 75.912917 -4.961847 -2.951485
H 73.975594 -4.438974 -0.528768
H 72.255883 -2.538399 -0.145765
C 166.395449 0.019611 -0.005942
C 165.667494 -1.247192 -0.550661
C 166.275248 -2.336172 -1.132482
C 165.252889 -3.276479 -1.423192
C 164.055678 -2.731743 -1.000853
N 164.314952 -1.472747 -0.520212
C 162.634121 -3.431386 -1.032874
C 162.597348 -4.886925 -1.296224
C 162.309973 -5.367425 -2.572704
C 162.298429 -6.737517 -2.768207
N 162.552482 -7.647277 -1.798287
C 162.826686 -7.145113 -0.570984
C 162.862101 -5.794099 -0.272319
C 161.502912 -2.720677 -0.778084
C 160.198571 -3.349625 -0.730112
C 159.295706 -2.420813 -0.438127
N 161.306056 -1.391890 -0.511031
C 159.974381 -1.147862 -0.296253
C 159.306458 -0.000962 -0.000876
C 160.085923 1.375628 0.118772
C 159.551371 2.635000 -0.070065
C 160.576837 3.578008 0.190196
C 161.711043 2.867459 0.520786
N 161.417271 1.528120 0.420449
C 163.116947 3.479916 0.923353
C 163.141458 4.853335 1.468642
C 162.744839 5.093425 2.782273
C 162.770127 6.397779 3.245163
N 163.154447 7.462897 2.502570
C 163.532383 7.193381 1.230994
C 163.541397 5.926507 0.673700
C 164.243356 2.734613 0.781568
C 165.562569 3.222419 1.144225
C 166.448997 2.268509 0.874983
C 165.730230 1.135929 0.345229
N 164.410157 1.460429 0.316455
H 167.472158 -0.022826 0.107141
H 167.333499 -2.448466 -1.311629
H 165.381748 -4.252075 -1.867263
H 163.614698 -0.813046 -0.190186
H 162.097744 -4.677083 -3.381972
H 162.075964 -7.151706 -3.746102
H 163.025596 -7.883594 0.198743
H 163.086600 -5.440350 0.728161
H 159.984971 -4.391724 -0.887872
H 158.242088 -2.604826 -0.333051
H 158.532828 2.855377 -0.351574
H 160.494296 4.653590 0.146591
H 162.096981 0.776348 0.501314
H 162.427571 4.273534 3.417570
H 162.469907 6.625618 4.262708
H 163.840273 8.053830 0.646098
H 163.854025 5.760409 -0.351702
H 165.791347 4.185983 1.562491
H 167.511058 2.321051 1.032487
C 84.307528 0.012097 0.001742
C 83.055258 -0.007084 -0.002607
C 85.621197 0.011332 0.003674
C 87.124330 -0.007084 -0.002607
C 98.241338 0.012097 0.001742
C 96.989068 -0.007084 -0.002607
C 99.555006 0.011332 0.003674
C 101.058140 -0.007084 -0.002607
C 112.175148 0.012097 0.001742
C 110.922878 -0.007084 -0.002607
C 113.488816 0.011332 0.003674
C 114.991950 -0.007084 -0.002607
C 126.108958 0.012097 0.001742
C 124.856688 -0.007084 -0.002607
C 127.422626 0.011332 0.003674
C 128.925760 -0.007084 -0.002607
C 140.042768 0.012097 0.001742
C 138.790497 -0.007084 -0.002607
C 141.356436 0.011332 0.003674
C 142.859570 -0.007084 -0.002607
C 153.976578 0.012097 0.001742
C 152.724307 -0.007084 -0.002607
C 155.290246 0.011332 0.003674
C 156.793380 -0.007084 -0.002607
C 88.435848 0.001021 0.000589
C 89.231628 -1.244477 0.571700
C 88.731234 -2.239836 1.384219
C 89.769435 -3.185679 1.584964
C 90.872919 -2.734976 0.891386
N 90.557693 -1.517411 0.344074
C 92.261490 -3.480478 0.745400
C 92.254134 -4.957153 0.823501
C 92.671786 -5.608041 1.983647
C 92.630492 -6.991440 2.009577
N 92.205979 -7.759723 0.978977
C 91.806597 -7.094809 -0.130944
C 91.809923 -5.715993 -0.256842
C 93.397075 -2.771183 0.516172
C 94.684091 -3.407269 0.322275
C 95.592675 -2.459433 0.118289
N 93.605292 -1.425079 0.404493
C 94.930442 -1.172071 0.171155
C 95.594155 0.001021 0.000589
C 94.797035 1.367500 0.069600
C 95.290036 2.590871 0.473193
C 94.252198 3.542896 0.303621
C 93.156126 2.868588 -0.191193
N 93.474532 1.535549 -0.257839
C 91.770943 3.505569 -0.611288
C 91.782704 4.899123 -1.104578
C 91.386770 5.948366 -0.277370
C 91.429719 7.234848 -0.785831
N 91.835690 7.544897 -2.038936
C 92.214573 6.501758 -2.814294
C 92.208508 5.180893 -2.400638
C 90.634264 2.764002 -0.555847
C 89.348099 3.282556 -0.973952
C 88.438833 2.328259 -0.807759
C 89.099960 1.153310 -0.277033
N 90.424560 1.474993 -0.152923
H 87.727828 -2.292096 1.774037
H 89.712135 -4.099217 2.154418
H 91.216586 -0.892515 -0.113359
H 93.021554 -5.035482 2.836318
H 92.948038 -7.534409 2.892998
H 91.469325 -7.721095 -0.950749
H 91.478897 -5.230883 -1.168274
H 94.881279 -4.464518 0.329635
H 96.637681 -2.637701 -0.058075
H 96.289723 2.782907 0.830835
H 94.304954 4.602484 0.503134
H 92.820517 0.786461 -0.465027
H 91.051966 5.749882 0.734893
H 91.127633 8.078589 -0.174366
H 92.536640 6.762113 -3.816757
H 92.522710 4.379844 -3.060794
H 89.151858 4.266382 -1.361649
H 87.393747 2.429017 -1.037019
C 102.369657 0.001021 0.000589
C 103.165438 -1.244477 0.571700
C 102.665044 -2.239836 1.384219
C 103.703245 -3.185679 1.584964
C 104.806729 -2.734976 0.891386
N 104.491503 -1.517411 0.344074
C 106.195300 -3.480478 0.745400
C 106.187944 -4.957153 0.823501
C 106.605596 -5.608041 1.983647
C 106.564302 -6.991440 2.009577
N 106.139789 -7.759723 0.978977
C 105.740407 -7.094809 -0.130944
C 105.743733 -5.715993 -0.256842
C 107.330885 -2.771183 0.516172
C 108.617901 -3.407269 0.322275
C 109.526485 -2.459433 0.118289
N 107.539102 -1.425079 0.404493
C 108.864252 -1.172071 0.171155
C 109.527965 0.001021 0.000589
C 108.730845 1.367500 0.069600
C 109.223846 2.590871 0.473193
C 108.186008 3.542896 0.303621
C 107.089936 2.868588 -0.191193
N 107.408342 1.535549 -0.257839
C 105.704753 3.505569 -0.611288
C 105.716514 4.899123 -1.104578
C 105.320580 5.948366 -0.277370
C 105.363529 7.234848 -0.785831
N 105.769499 7.544897 -2.038936
C 106.148383 6.501758 -2.814294
C 106.142318 5.180893 -2.400638
C 104.568074 2.764002 -0.555847
C 103.281909 3.282556 -0.973952
C 102.372643 2.328259 -0.807759
C 103.033770 1.153310 -0.277033
N 104.358370 1.474993 -0.152923
H 101.661638 -2.292096 1.774037
H 103.645945 -4.099217 2.154418
H 105.150395 -0.892515 -0.113359
H 106.955364 -5.035482 2.836318
H 106.881848 -7.534409 2.892998
H 105.403134 -7.721095 -0.950749
H 105.412707 -5.230883 -1.168274
H 108.815089 -4.464518 0.329635
H 110.571491 -2.637701 -0.058075
H 110.223533 2.782907 0.830835
H 108.238763 4.602484 0.503134
H 106.754327 0.786461 -0.465027
H 104.985776 5.749882 0.734893
H 105.061443 8.078589 -0.174366
H 106.470450 6.762113 -3.816757
H 106.456520 4.379844 -3.060794
H 103.085668 4.266382 -1.361649
H 101.327557 2.429017 -1.037019
C 116.303467 0.001021 0.000589
C 117.099248 -1.244477 0.571700
C 116.598854 -2.239836 1.384219
C 117.637055 -3.185679 1.584964
C 118.740539 -2.734976 0.891386
N 118.425313 -1.517411 0.344074
C 120.129110 -3.480478 0.745400
C 120.121754 -4.957153 0.823501
C 120.539406 -5.608041 1.983647
C 120.498112 -6.991440 2.009577
N 120.073599 -7.759723 0.978977
C 119.674217 -7.094809 -0.130944
C 119.677542 -5.715993 -0.256842
C 121.264695 -2.771183 0.516172
C 122.551711 -3.407269 0.322275
C 123.460295 -2.459433 0.118289
N 121.472912 -1.425079 0.404493
C 122.798062 -1.172071 0.171155
C 123.461775 0.001021 0.000589
C 122.664655 1.367500 0.069600
C 123.157656 2.590871 0.473193
C 122.119818 3.542896 0.303621
C 121.023746 2.868588 -0.191193
N 121.342151 1.535549 -0.257839
C 119.638563 3.505569 -0.611288
C 119.650324 4.899123 -1.104578
C 119.254390 5.948366 -0.277370
C 119.297339 7.234848 -0.785831
N 119.703309 7.544897 -2.038936
C 120.082193 6.501758 -2.814294
C 120.076127 5.180893 -2.400638
C 118.501884 2.764002 -0.555847
C 117.215719 3.282556 -0.973952
C 116.306453 2.328259 -0.807759
C 116.967579 1.153310 -0.277033
N 118.292180 1.474993 -0.152923
H 115.595448 -2.292096 1.774037
H 117.579755 -4.099217 2.154418
H 119.084205 -0.892515 -0.113359
H 120.889174 -5.035482 2.836318
H 120.815658 -7.534409 2.892998
H 119.336944 -7.721095 -0.950749
H 119.346517 -5.230883 -1.168274
H 122.748899 -4.464518 0.329635
H 124.505301 -2.637701 -0.058075
H 124.157342 2.782907 0.830835
H 122.172573 4.602484 0.503134
H 120.688137 0.786461 -0.465027
H 118.919586 5.749882 0.734893
H 118.995253 8.078589 -0.174366
H 120.404260 6.762113 -3.816757
H 120.390330 4.379844 -3.060794
H 117.019477 4.266382 -1.361649
H 115.261367 2.429017 -1.037019
C 130.237277 0.001021 0.000589
C 131.033058 -1.244477 0.571700
C 130.532663 -2.239836 1.384219
C 131.570865 -3.185679 1.584964
C 132.674349 -2.734976 0.891386
N 132.359123 -1.517411 0.344074
C 134.062920 -3.480478 0.745400
C 134.055564 -4.957153 0.823501
C 134.473216 -5.608041 1.983647
C 134.431921 -6.991440 2.009577
N 134.007409 -7.759723 0.978977
C 133.608027 -7.094809 -0.130944
C 133.611352 -5.715993 -0.256842
C 135.198505 -2.771183 0.516172
C 136.485521 -3.407269 0.322275
C 137.394105 -2.459433 0.118289
N 135.406722 -1.425079 0.404493
C 136.731872 -1.172071 0.171155
C 137.395585 0.001021 0.000589
C 136.598465 1.367500 0.069600
C 137.091466 2.590871 0.473193
C 136.053628 3.542896 0.303621
C 134.957556 2.868588 -0.191193
N 135.275961 1.535549 -0.257839
C 133.572372 3.505569 -0.611288
C 133.584134 4.899123 -1.104578
C 133.188200 5.948366 -0.277370
C 133.231149 7.234848 -0.785831
N 133.637119 7.544897 -2.038936
C 134.016003 6.501758 -2.814294
C 134.009937 5.180893 -2.400638
C 132.435694 2.764002 -0.555847
C 131.149528 3.282556 -0.973952
C 130.240263 2.328259 -0.807759
C 130.901389 1.153310 -0.277033
N 132.225990 1.474993 -0.152923
H 129.529258 -2.292096 1.774037
H 131.513565 -4.099217 2.154418
H 133.018015 -0.892515 -0.113359
H 134.822984 -5.035482 2.836318
H 134.749468 -7.534409 2.892998
H 133.270754 -7.721095 -0.950749
H 133.280327 -5.230883 -1.168274
H 136.682709 -4.464518 0.329635
H 138.439111 -2.637701 -0.058075
H 138.091152 2.782907 0.830835
H 136.106383 4.602484 0.503134
H 134.621946 0.786461 -0.465027
H 132.853395 5.749882 0.734893
H 132.929062 8.078589 -0.174366
H 134.338070 6.762113 -3.816757
H 134.324140 4.379844 -3.060794
H 130.953287 4.266382 -1.361649
H 129.195177 2.429017 -1.037019
C 144.171087 0.001021 0.000589
C 144.966868 -1.244477 0.571700
C 144.466473 -2.239836 1.384219
C 145.504675 -3.185679 1.584964
C 146.608159 -2.734976 0.891386
N 146.292933 -1.517411 0.344074
C 147.996730 -3.480478 0.745400
C 147.989374 -4.957153 0.823501
C 148.407026 -5.608041 1.983647
C 148.365731 -6.991440 2.009577
N 147.941219 -7.759723 0.978977
C 147.541837 -7.094809 -0.130944
C 147.545162 -5.715993 -0.256842
C 149.132315 -2.771183 0.516172
C 150.419331 -3.407269 0.322275
C 151.327915 -2.459433 0.118289
N 149.340532 -1.425079 0.404493
C 150.665682 -1.172071 0.171155
C 151.329394 0.001021 0.000589
C 150.532275 1.367500 0.069600
C 151.025275 2.590871 0.473193
C 149.987438 3.542896 0.303621
C 148.891366 2.868588 -0.191193
N 149.209771 1.535549 -0.257839
C 147.506182 3.505569 -0.611288
C 147.517943 4.899123 -1.104578
C 147.122010 5.948366 -0.277370
C 147.164959 7.234848 -0.785831
N 147.570929 7.544897 -2.038936
C 147.949813 6.501758 -2.814294
C 147.943747 5.180893 -2.400638
C 146.369504 2.764002 -0.555847
C 145.083338 3.282556 -0.973952
C 144.174073 2.328259 -0.807759
C 144.835199 1.153310 -0.277033
N 146.159800 1.474993 -0.152923
H 143.463068 -2.292096 1.774037
H 145.447375 -4.099217 2.154418
H 146.951825 -0.892515 -0.113359
H 148.756794 -5.035482 2.836318
H 148.683278 -7.534409 2.892998
H 147.204564 -7.721095 -0.950749
H 147.214137 -5.230883 -1.168274
H 150.616519 -4.464518 0.329635
H 152.372921 -2.637701 -0.058075
H 152.024962 2.782907 0.830835
H 150.040193 4.602484 0.503134
H 148.555756 0.786461 -0.465027
H 146.787205 5.749882 0.734893
H 146.862872 8.078589 -0.174366
H 148.271880 6.762113 -3.816757
H 148.257950 4.379844 -3.060794
H 144.887097 4.266382 -1.361649
H 143.128987 2.429017 -1.037019
