189

Cu 25.025945 0.027306 -0.020500
C 21.695660 -0.123425 -0.170296
C 22.361782 -1.280487 -0.137119
C 21.712692 -2.585774 -0.125781
C 22.652426 -3.506094 -0.022556
C 23.957002 -2.830950 0.030160
N 23.779215 -1.415929 -0.045569
C 25.145690 -3.451352 0.177877
C 25.180664 -4.926426 0.290877
C 24.988046 -5.727568 -0.845155
C 25.013801 -7.120890 -0.734446
C 25.236560 -7.723856 0.511433
O 25.262356 -9.110922 0.634073
C 25.433860 -6.926316 1.644101
C 25.404667 -5.532703 1.536396
C 26.441115 -2.722722 0.241014
C 27.735105 -3.378210 0.468044
C 28.670226 -2.451944 0.424819
N 26.580610 -1.444316 0.058457
C 27.983093 -1.193319 0.162429
C 28.579857 -0.002386 -0.016630
C 27.824670 1.242941 -0.293658
C 28.381189 2.369971 -0.718227
C 27.336834 3.372146 -0.781250
C 26.208698 2.793821 -0.389163
N 26.425262 1.418806 -0.063702
C 24.911049 3.505194 -0.255711
C 24.920306 4.986650 -0.205550
C 25.535308 5.648705 0.868980
C 25.553089 7.045360 0.918540
C 24.965941 7.792013 -0.107042
O 24.985581 9.182745 -0.040675
C 24.364900 7.135053 -1.190787
C 24.343426 5.738642 -1.240793
C 23.742441 2.842120 -0.169649
C 22.419910 3.443862 -0.008097
C 21.560353 2.444044 0.003378
C 22.324174 1.206172 -0.137029
N 23.597524 1.425190 -0.239327
H 20.612500 -0.155875 -0.196674
H 20.649298 -2.782025 -0.174924
H 22.464498 -4.570926 0.025115
H 24.814949 -5.272061 -1.812684
H 24.860261 -7.730407 -1.615980
H 25.116499 -9.715762 -0.166396
H 25.607889 -7.387251 2.608495
H 25.556687 -4.926111 2.420918
H 27.915605 -4.432105 0.634958
H 29.730906 -2.626295 0.550397
H 29.424205 2.530805 -0.954346
H 27.463829 4.404911 -1.077292
H 25.991457 5.082514 1.670985
H 26.018837 7.547980 1.757688
H 24.562229 9.752156 -0.765051
H 23.915992 7.705380 -1.993723
H 23.880461 5.242464 -2.086139
H 22.167415 4.491391 0.088947
H 20.487377 2.537666 0.109273
Cu 64.151794 -0.032326 -0.016199
C 67.482079 0.095353 -0.186072
C 66.815957 1.245205 -0.319247
C 67.465047 2.538614 -0.495302
C 66.525312 3.464222 -0.525187
C 65.220737 2.803627 -0.376151
N 65.398524 1.392380 -0.248077
C 64.032049 3.438804 -0.318974
C 63.997074 4.914829 -0.418779
C 64.189693 5.544691 -1.658001
C 64.163937 6.939481 -1.748344
C 63.941179 7.714961 -0.601865
O 63.915383 9.105272 -0.679503
C 63.743878 7.088182 0.633511
C 63.773071 5.693534 0.726869
C 62.736624 2.726770 -0.151951
C 61.442634 3.408049 -0.021315
C 60.507513 2.485166 0.068802
N 62.597129 1.435399 -0.149200
C 61.194646 1.201915 -0.010293
C 60.597882 -0.002386 -0.016630
C 61.353069 -1.274575 -0.112119
C 60.796549 -2.450860 -0.370595
C 61.840905 -3.451709 -0.289180
C 62.969040 -2.823113 0.015876
N 62.752477 -1.415629 0.140690
C 64.266689 -3.507979 0.250011
C 64.257432 -4.966911 0.512204
C 63.642431 -5.467948 1.670605
C 63.624649 -6.843043 1.920037
C 64.211797 -7.729117 1.012191
O 64.192157 -9.095938 1.277406
C 64.812839 -7.234443 -0.154598
C 64.834312 -5.859654 -0.404437
C 65.435297 -2.839417 0.240048
C 66.757828 -3.411755 0.486264
C 67.617386 -2.420635 0.354171
C 66.853564 -1.215715 0.037614
N 65.580215 -1.447144 -0.032202
H 68.565238 0.123683 -0.216833
H 68.528441 2.725783 -0.572094
H 66.713240 4.524877 -0.630787
H 64.362790 4.955080 -2.550166
H 64.317477 7.416215 -2.708207
H 64.061239 9.589008 -1.558468
H 63.569850 7.682714 1.521795
H 63.621051 5.220124 1.689270
H 61.262133 4.474989 -0.007335
H 59.446832 2.675729 0.168066
H 59.753533 -2.643907 -0.581195
H 61.713910 -4.516263 -0.433984
H 63.186282 -4.792548 2.383079
H 63.158901 -7.220067 2.822617
H 64.615509 -9.763387 0.642220
H 65.261747 -7.914070 -0.867400
H 65.297278 -5.489895 -1.312225
H 67.010323 -4.434523 0.732597
H 68.690362 -2.498095 0.472403
C 31.025433 0.011839 -0.006680
C 32.483659 -0.009997 -0.024553
C 33.617587 -0.030751 -0.026044
C 34.978969 -0.043341 -0.028235
C 36.253188 -0.033034 -0.033000
C 37.441650 -0.014236 -0.039156
C 38.794011 0.010548 -0.023288
C 39.894278 0.011839 -0.006680
C 49.163346 0.011839 -0.006680
C 50.621572 -0.009997 -0.024553
C 51.755500 -0.030751 -0.026044
C 53.116882 -0.043341 -0.028235
C 54.391101 -0.033034 -0.033000
C 55.579563 -0.014236 -0.039156
C 56.931924 0.010548 -0.023288
C 58.032191 0.011839 -0.006680
Cu 44.562720 0.020576 -0.038184
C 41.141126 0.001533 0.035719
C 41.798067 0.981911 0.683341
C 41.158649 2.036134 1.473825
C 42.098388 2.842529 1.927015
C 43.395224 2.352876 1.452363
N 43.215154 1.171671 0.667464
C 44.579848 2.948375 1.700013
C 44.610620 4.206710 2.474629
C 44.912921 4.182548 3.847746
C 44.955432 5.375730 4.576852
C 44.704021 6.598719 3.938351
O 44.753048 7.780345 4.675338
C 44.405325 6.624168 2.565044
C 44.358583 5.432297 1.835521
C 45.878579 2.408179 1.228566
C 47.148599 3.138738 1.322906
C 48.102111 2.349699 0.870498
N 46.046263 1.218478 0.739355
C 47.446710 1.106148 0.485027
C 48.062816 0.001533 0.035719
C 47.313427 -1.213348 -0.352243
C 47.852561 -2.419769 -0.477446
C 46.819031 -3.299947 -0.988036
C 45.719809 -2.569617 -1.143297
N 45.941605 -1.217212 -0.746726
C 44.461576 -3.065237 -1.753559
C 44.524419 -4.262042 -2.627851
C 43.847296 -5.442723 -2.273742
C 43.913428 -6.567414 -3.102962
C 44.656991 -6.523368 -4.291099
O 44.725911 -7.635206 -5.127424
C 45.338050 -5.352187 -4.641666
C 45.277028 -4.227084 -3.812443
C 43.286334 -2.434519 -1.559850
C 42.009486 -2.789215 -2.174584
C 41.121220 -1.947766 -1.686276
C 41.818950 -1.047396 -0.760334
N 43.085004 -1.324030 -0.684236
H 40.102454 2.161717 1.669118
H 41.916331 3.712919 2.545199
H 45.112113 3.241994 4.351076
H 45.185747 5.350732 5.637271
H 44.565503 8.681785 4.239153
H 44.211924 7.565706 2.062591
H 44.131276 5.462550 0.774806
H 47.297445 4.144263 1.696207
H 49.152906 2.602080 0.813370
H 48.879393 -2.694557 -0.273481
H 46.937019 -4.347184 -1.235345
H 43.271112 -5.489574 -1.356901
H 43.385907 -7.471013 -2.821943
H 44.258741 -8.503616 -4.891672
H 45.915328 -5.313662 -5.556969
H 45.807604 -3.326448 -4.097571
H 41.805662 -3.570825 -2.895965
H 40.070634 -1.936879 -1.946456
