580

C 136.804278 -0.005506 -0.061676
C 137.532771 -1.263684 0.502928
C 136.924161 -2.428203 0.912642
C 137.945950 -3.279466 1.407489
C 139.144019 -2.602071 1.289637
N 138.885412 -1.394941 0.689949
C 140.566507 -3.104184 1.779169
C 141.696339 -2.428958 1.434327
C 143.000977 -2.825197 1.923517
C 143.903343 -1.974938 1.448215
N 141.892616 -1.322694 0.649859
C 143.224168 -0.997903 0.619868
C 143.891813 0.004603 -0.011226
C 143.114163 1.037477 -0.931921
C 143.654553 1.772864 -1.968886
C 142.629761 2.606498 -2.481737
C 141.489516 2.349142 -1.751061
C 140.080216 3.054858 -1.934474
C 140.052971 4.393174 -2.567351
C 139.680295 4.538352 -3.909649
C 139.669350 5.800362 -4.506587
C 140.034108 6.924802 -3.765054
C 140.409492 6.788118 -2.427855
C 140.419773 5.525686 -1.831381
C 138.954589 2.433565 -1.495254
C 137.632709 3.022319 -1.618334
C 136.746894 2.170201 -1.110910
C 137.468517 1.015430 -0.634906
N 138.789609 1.223243 -0.880957
N 141.780180 1.355174 -0.846429
C 140.603973 -4.296016 2.660018
C 140.351616 -4.167547 4.030955
C 140.376181 -5.290461 4.860192
C 140.652237 -6.548450 4.322530
C 140.903999 -6.684767 2.956622
C 140.879016 -5.561710 2.127668
H 135.726443 0.042861 0.036450
H 135.865797 -2.634952 0.875573
H 137.818762 -4.266241 1.826642
H 139.586625 -0.705550 0.430171
H 143.212053 -3.656656 2.572120
H 144.956878 -2.025246 1.653577
H 144.676469 1.726933 -2.313117
H 142.714274 3.318206 -3.289134
H 139.396061 3.654505 -4.476833
H 139.375065 5.898476 -5.546483
H 140.025316 7.906365 -4.228011
H 140.694524 7.657726 -1.844421
H 140.710799 5.408383 -0.789739
H 137.404862 3.982899 -2.044060
H 135.683390 2.314525 -1.053113
H 141.096884 0.893773 -0.251483
H 140.139296 -3.181764 4.439164
H 140.180934 -5.176171 5.921597
H 140.672896 -7.421016 4.967605
H 141.121800 -7.659286 2.531664
H 141.076962 -5.654580 1.061994
C 241.766075 -0.036703 -0.041905
C 241.037582 1.010980 -0.938648
C 241.646192 1.878613 -1.816819
C 240.624403 2.689504 -2.375367
C 239.426334 2.293753 -1.813109
N 239.684941 1.236136 -0.977506
C 238.003845 2.950788 -2.058192
C 236.874014 2.350695 -1.594796
C 235.569376 2.962223 -1.744281
C 234.667010 2.169435 -1.178296
N 236.677737 1.169040 -0.929287
C 235.346185 1.003267 -0.648381
C 234.678540 0.004603 -0.011226
C 235.456190 -1.268912 0.529762
C 234.915799 -2.520574 0.752096
C 235.940591 -3.340220 1.287018
C 237.080837 -2.569605 1.366213
C 238.490136 -3.036734 1.926095
C 238.517382 -4.180366 2.866161
C 238.890058 -5.456184 2.424424
C 238.901002 -6.534742 3.310831
C 238.536244 -6.344193 4.644220
C 238.160861 -5.076613 5.091461
C 238.150580 -3.998293 4.204476
C 239.615764 -2.374319 1.551760
C 240.937643 -2.736957 2.031628
C 241.823459 -1.914327 1.477675
C 241.101836 -0.990909 0.636619
N 239.780744 -1.302128 0.719507
N 236.790172 -1.327225 0.853551
C 237.966380 4.256129 -2.759935
C 238.218737 5.441025 -2.058513
C 238.194172 6.670272 -2.719966
C 237.918115 6.721094 -4.087092
C 237.666354 5.544096 -4.793465
C 237.691337 4.315044 -4.131761
H 242.843910 0.031385 0.043724
H 242.704556 1.933352 -2.019606
H 240.751590 3.489795 -3.088775
H 238.983727 0.706920 -0.464987
H 235.358300 3.903702 -2.219285
H 233.613475 2.376620 -1.136122
H 233.893884 -2.812255 0.563610
H 235.856079 -4.374176 1.585941
H 239.174292 -5.591777 1.383033
H 239.195287 -7.517005 2.955627
H 238.545037 -7.181870 5.334214
H 237.875829 -4.920245 6.126914
H 237.859554 -3.006259 4.543071
H 241.165491 -3.532009 2.718540
H 242.886963 -1.923673 1.632860
H 237.473469 -0.592245 0.690287
H 238.431057 5.389342 -0.992805
H 238.389418 7.581311 -2.163505
H 237.897456 7.676932 -4.600775
H 237.448553 5.575825 -5.856136
H 237.493391 3.391000 -4.670675
C 145.906426 0.004603 -0.011226
C 147.128343 0.004603 -0.011226
C 156.598374 0.004603 -0.011226
C 157.820291 0.004603 -0.011226
C 167.290322 0.004603 -0.011226
C 168.512239 0.004603 -0.011226
C 177.982270 0.004603 -0.011226
C 179.204187 0.004603 -0.011226
C 188.674218 0.004603 -0.011226
C 189.896135 0.004603 -0.011226
C 199.366166 0.004603 -0.011226
C 200.588083 0.004603 -0.011226
C 210.058114 0.004603 -0.011226
C 211.280031 0.004603 -0.011226
C 220.750062 0.004603 -0.011226
C 221.971979 0.004603 -0.011226
C 231.442010 0.004603 -0.011226
C 232.663927 0.004603 -0.011226
C 148.286410 -0.001356 0.003308
C 149.080062 1.108467 0.809267
C 148.573336 1.933209 1.793161
C 149.610235 2.821908 2.176401
C 150.719676 2.507106 1.420157
N 150.408725 1.416331 0.647356
C 152.109302 3.267218 1.428801
C 153.244110 2.613377 1.065148
C 154.531041 3.274692 0.999209
C 155.439003 2.386406 0.609530
N 153.452141 1.314723 0.690220
C 154.776649 1.113470 0.407043
C 155.440448 -0.001356 0.003308
C 154.646811 -1.357279 -0.203571
C 155.153578 -2.635490 -0.083610
C 154.116676 -3.536988 -0.435689
C 153.007194 -2.781510 -0.752177
C 151.617542 -3.328233 -1.280249
C 151.626668 -4.606452 -2.030078
C 152.104729 -4.646706 -3.344963
C 152.129734 -5.851698 -4.049982
C 151.678946 -7.024620 -3.442955
C 151.204003 -6.994116 -2.131272
C 151.179946 -5.789068 -1.426676
C 150.482743 -2.607533 -1.079336
C 149.195806 -3.031569 -1.591075
C 148.287848 -2.125836 -1.243872
C 148.950208 -1.078091 -0.493155
N 150.274720 -1.420272 -0.433211
N 153.318129 -1.462462 -0.535060
C 152.100056 4.703487 1.793804
C 151.621793 5.656203 0.886783
C 151.596473 7.008872 1.232222
C 152.047150 7.416646 2.488426
C 152.522323 6.473125 3.400011
C 152.546699 5.120710 3.054229
H 147.564904 1.915017 2.177542
H 149.549630 3.615548 2.905870
H 151.069829 0.893721 0.080023
H 154.725679 4.309771 1.216318
H 156.483445 2.597199 0.469818
H 156.162038 -2.892736 0.202482
H 154.177307 -4.614234 -0.474775
H 152.455044 -3.727482 -3.809477
H 152.501477 -5.867311 -5.069507
H 151.697727 -7.960794 -3.991704
H 150.851022 -7.901813 -1.652578
H 150.810445 -5.753054 -0.404017
H 149.001163 -3.920405 -2.164219
H 147.243405 -2.177560 -1.491412
H 152.657004 -0.691971 -0.571157
H 151.271525 5.328743 -0.089718
H 151.224545 7.736474 0.517991
H 152.028087 8.468257 2.756104
H 152.875201 6.782425 4.378516
H 152.916335 4.376388 3.756379
C 158.978358 -0.001356 0.003308
C 159.772010 1.108467 0.809267
C 159.265284 1.933209 1.793161
C 160.302183 2.821908 2.176401
C 161.411624 2.507106 1.420157
N 161.100673 1.416331 0.647356
C 162.801250 3.267218 1.428801
C 163.936058 2.613377 1.065148
C 165.222989 3.274692 0.999209
C 166.130951 2.386406 0.609530
N 164.144089 1.314723 0.690220
C 165.468597 1.113470 0.407043
C 166.132396 -0.001356 0.003308
C 165.338759 -1.357279 -0.203571
C 165.845526 -2.635490 -0.083610
C 164.808624 -3.536988 -0.435689
C 163.699142 -2.781510 -0.752177
C 162.309490 -3.328233 -1.280249
C 162.318616 -4.606452 -2.030078
C 162.796677 -4.646706 -3.344963
C 162.821682 -5.851698 -4.049982
C 162.370894 -7.024620 -3.442955
C 161.895951 -6.994116 -2.131272
C 161.871894 -5.789068 -1.426676
C 161.174691 -2.607533 -1.079336
C 159.887754 -3.031569 -1.591075
C 158.979796 -2.125836 -1.243872
C 159.642156 -1.078091 -0.493155
N 160.966668 -1.420272 -0.433211
N 164.010077 -1.462462 -0.535060
C 162.792004 4.703487 1.793804
C 162.313741 5.656203 0.886783
C 162.288421 7.008872 1.232222
C 162.739098 7.416646 2.488426
C 163.214271 6.473125 3.400011
C 163.238647 5.120710 3.054229
H 158.256852 1.915017 2.177542
H 160.241578 3.615548 2.905870
H 161.761777 0.893721 0.080023
H 165.417627 4.309771 1.216318
H 167.175393 2.597199 0.469818
H 166.853986 -2.892736 0.202482
H 164.869255 -4.614234 -0.474775
H 163.146992 -3.727482 -3.809477
H 163.193425 -5.867311 -5.069507
H 162.389675 -7.960794 -3.991704
H 161.542970 -7.901813 -1.652578
H 161.502393 -5.753054 -0.404017
H 159.693111 -3.920405 -2.164219
H 157.935353 -2.177560 -1.491412
H 163.348952 -0.691971 -0.571157
H 161.963473 5.328743 -0.089718
H 161.916493 7.736474 0.517991
H 162.720035 8.468257 2.756104
H 163.567149 6.782425 4.378516
H 163.608283 4.376388 3.756379
C 169.670306 -0.001356 0.003308
C 170.463958 1.108467 0.809267
C 169.957232 1.933209 1.793161
C 170.994131 2.821908 2.176401
C 172.103572 2.507106 1.420157
N 171.792621 1.416331 0.647356
C 173.493198 3.267218 1.428801
C 174.628006 2.613377 1.065148
C 175.914937 3.274692 0.999209
C 176.822899 2.386406 0.609530
N 174.836037 1.314723 0.690220
C 176.160545 1.113470 0.407043
C 176.824344 -0.001356 0.003308
C 176.030707 -1.357279 -0.203571
C 176.537474 -2.635490 -0.083610
C 175.500572 -3.536988 -0.435689
C 174.391090 -2.781510 -0.752177
C 173.001438 -3.328233 -1.280249
C 173.010564 -4.606452 -2.030078
C 173.488625 -4.646706 -3.344963
C 173.513630 -5.851698 -4.049982
C 173.062842 -7.024620 -3.442955
C 172.587899 -6.994116 -2.131272
C 172.563842 -5.789068 -1.426676
C 171.866639 -2.607533 -1.079336
C 170.579702 -3.031569 -1.591075
C 169.671744 -2.125836 -1.243872
C 170.334104 -1.078091 -0.493155
N 171.658616 -1.420272 -0.433211
N 174.702025 -1.462462 -0.535060
C 173.483952 4.703487 1.793804
C 173.005689 5.656203 0.886783
C 172.980369 7.008872 1.232222
C 173.431046 7.416646 2.488426
C 173.906219 6.473125 3.400011
C 173.930595 5.120710 3.054229
H 168.948800 1.915017 2.177542
H 170.933526 3.615548 2.905870
H 172.453725 0.893721 0.080023
H 176.109575 4.309771 1.216318
H 177.867341 2.597199 0.469818
H 177.545934 -2.892736 0.202482
H 175.561203 -4.614234 -0.474775
H 173.838940 -3.727482 -3.809477
H 173.885373 -5.867311 -5.069507
H 173.081623 -7.960794 -3.991704
H 172.234918 -7.901813 -1.652578
H 172.194341 -5.753054 -0.404017
H 170.385059 -3.920405 -2.164219
H 168.627301 -2.177560 -1.491412
H 174.040900 -0.691971 -0.571157
H 172.655421 5.328743 -0.089718
H 172.608441 7.736474 0.517991
H 173.411983 8.468257 2.756104
H 174.259097 6.782425 4.378516
H 174.300231 4.376388 3.756379
C 180.362254 -0.001356 0.003308
C 181.155906 1.108467 0.809267
C 180.649180 1.933209 1.793161
C 181.686079 2.821908 2.176401
C 182.795520 2.507106 1.420157
N 182.484569 1.416331 0.647356
C 184.185146 3.267218 1.428801
C 185.319954 2.613377 1.065148
C 186.606885 3.274692 0.999209
C 187.514847 2.386406 0.609530
N 185.527985 1.314723 0.690220
C 186.852493 1.113470 0.407043
C 187.516292 -0.001356 0.003308
C 186.722655 -1.357279 -0.203571
C 187.229422 -2.635490 -0.083610
C 186.192520 -3.536988 -0.435689
C 185.083038 -2.781510 -0.752177
C 183.693386 -3.328233 -1.280249
C 183.702512 -4.606452 -2.030078
C 184.180573 -4.646706 -3.344963
C 184.205578 -5.851698 -4.049982
C 183.754790 -7.024620 -3.442955
C 183.279847 -6.994116 -2.131272
C 183.255790 -5.789068 -1.426676
C 182.558587 -2.607533 -1.079336
C 181.271650 -3.031569 -1.591075
C 180.363692 -2.125836 -1.243872
C 181.026052 -1.078091 -0.493155
N 182.350564 -1.420272 -0.433211
N 185.393973 -1.462462 -0.535060
C 184.175900 4.703487 1.793804
C 183.697637 5.656203 0.886783
C 183.672317 7.008872 1.232222
C 184.122994 7.416646 2.488426
C 184.598167 6.473125 3.400011
C 184.622543 5.120710 3.054229
H 179.640748 1.915017 2.177542
H 181.625474 3.615548 2.905870
H 183.145673 0.893721 0.080023
H 186.801523 4.309771 1.216318
H 188.559289 2.597199 0.469818
H 188.237882 -2.892736 0.202482
H 186.253151 -4.614234 -0.474775
H 184.530888 -3.727482 -3.809477
H 184.577321 -5.867311 -5.069507
H 183.773571 -7.960794 -3.991704
H 182.926866 -7.901813 -1.652578
H 182.886289 -5.753054 -0.404017
H 181.077007 -3.920405 -2.164219
H 179.319249 -2.177560 -1.491412
H 184.732848 -0.691971 -0.571157
H 183.347369 5.328743 -0.089718
H 183.300389 7.736474 0.517991
H 184.103931 8.468257 2.756104
H 184.951045 6.782425 4.378516
H 184.992179 4.376388 3.756379
C 191.054202 -0.001356 0.003308
C 191.847854 1.108467 0.809267
C 191.341128 1.933209 1.793161
C 192.378027 2.821908 2.176401
C 193.487468 2.507106 1.420157
N 193.176517 1.416331 0.647356
C 194.877094 3.267218 1.428801
C 196.011902 2.613377 1.065148
C 197.298833 3.274692 0.999209
C 198.206795 2.386406 0.609530
N 196.219933 1.314723 0.690220
C 197.544441 1.113470 0.407043
C 198.208240 -0.001356 0.003308
C 197.414603 -1.357279 -0.203571
C 197.921370 -2.635490 -0.083610
C 196.884468 -3.536988 -0.435689
C 195.774986 -2.781510 -0.752177
C 194.385334 -3.328233 -1.280249
C 194.394460 -4.606452 -2.030078
C 194.872521 -4.646706 -3.344963
C 194.897526 -5.851698 -4.049982
C 194.446738 -7.024620 -3.442955
C 193.971795 -6.994116 -2.131272
C 193.947738 -5.789068 -1.426676
C 193.250535 -2.607533 -1.079336
C 191.963598 -3.031569 -1.591075
C 191.055640 -2.125836 -1.243872
C 191.718000 -1.078091 -0.493155
N 193.042512 -1.420272 -0.433211
N 196.085921 -1.462462 -0.535060
C 194.867848 4.703487 1.793804
C 194.389585 5.656203 0.886783
C 194.364265 7.008872 1.232222
C 194.814942 7.416646 2.488426
C 195.290115 6.473125 3.400011
C 195.314491 5.120710 3.054229
H 190.332696 1.915017 2.177542
H 192.317422 3.615548 2.905870
H 193.837621 0.893721 0.080023
H 197.493471 4.309771 1.216318
H 199.251237 2.597199 0.469818
H 198.929830 -2.892736 0.202482
H 196.945099 -4.614234 -0.474775
H 195.222836 -3.727482 -3.809477
H 195.269269 -5.867311 -5.069507
H 194.465519 -7.960794 -3.991704
H 193.618814 -7.901813 -1.652578
H 193.578237 -5.753054 -0.404017
H 191.768955 -3.920405 -2.164219
H 190.011197 -2.177560 -1.491412
H 195.424796 -0.691971 -0.571157
H 194.039317 5.328743 -0.089718
H 193.992337 7.736474 0.517991
H 194.795879 8.468257 2.756104
H 195.642993 6.782425 4.378516
H 195.684127 4.376388 3.756379
C 201.746150 -0.001356 0.003308
C 202.539802 1.108467 0.809267
C 202.033076 1.933209 1.793161
C 203.069975 2.821908 2.176401
C 204.179416 2.507106 1.420157
N 203.868465 1.416331 0.647356
C 205.569042 3.267218 1.428801
C 206.703850 2.613377 1.065148
C 207.990781 3.274692 0.999209
C 208.898743 2.386406 0.609530
N 206.911881 1.314723 0.690220
C 208.236389 1.113470 0.407043
C 208.900188 -0.001356 0.003308
C 208.106551 -1.357279 -0.203571
C 208.613318 -2.635490 -0.083610
C 207.576416 -3.536988 -0.435689
C 206.466934 -2.781510 -0.752177
C 205.077282 -3.328233 -1.280249
C 205.086408 -4.606452 -2.030078
C 205.564469 -4.646706 -3.344963
C 205.589474 -5.851698 -4.049982
C 205.138686 -7.024620 -3.442955
C 204.663743 -6.994116 -2.131272
C 204.639686 -5.789068 -1.426676
C 203.942483 -2.607533 -1.079336
C 202.655546 -3.031569 -1.591075
C 201.747588 -2.125836 -1.243872
C 202.409948 -1.078091 -0.493155
N 203.734460 -1.420272 -0.433211
N 206.777869 -1.462462 -0.535060
C 205.559796 4.703487 1.793804
C 205.081533 5.656203 0.886783
C 205.056213 7.008872 1.232222
C 205.506890 7.416646 2.488426
C 205.982063 6.473125 3.400011
C 206.006439 5.120710 3.054229
H 201.024644 1.915017 2.177542
H 203.009370 3.615548 2.905870
H 204.529569 0.893721 0.080023
H 208.185419 4.309771 1.216318
H 209.943185 2.597199 0.469818
H 209.621778 -2.892736 0.202482
H 207.637047 -4.614234 -0.474775
H 205.914784 -3.727482 -3.809477
H 205.961217 -5.867311 -5.069507
H 205.157467 -7.960794 -3.991704
H 204.310762 -7.901813 -1.652578
H 204.270185 -5.753054 -0.404017
H 202.460903 -3.920405 -2.164219
H 200.703145 -2.177560 -1.491412
H 206.116744 -0.691971 -0.571157
H 204.731265 5.328743 -0.089718
H 204.684285 7.736474 0.517991
H 205.487827 8.468257 2.756104
H 206.334941 6.782425 4.378516
H 206.376075 4.376388 3.756379
C 212.438098 -0.001356 0.003308
C 213.231750 1.108467 0.809267
C 212.725024 1.933209 1.793161
C 213.761923 2.821908 2.176401
C 214.871364 2.507106 1.420157
N 214.560413 1.416331 0.647356
C 216.260990 3.267218 1.428801
C 217.395798 2.613377 1.065148
C 218.682729 3.274692 0.999209
C 219.590691 2.386406 0.609530
N 217.603829 1.314723 0.690220
C 218.928337 1.113470 0.407043
C 219.592136 -0.001356 0.003308
C 218.798499 -1.357279 -0.203571
C 219.305266 -2.635490 -0.083610
C 218.268364 -3.536988 -0.435689
C 217.158882 -2.781510 -0.752177
C 215.769230 -3.328233 -1.280249
C 215.778356 -4.606452 -2.030078
C 216.256417 -4.646706 -3.344963
C 216.281422 -5.851698 -4.049982
C 215.830634 -7.024620 -3.442955
C 215.355691 -6.994116 -2.131272
C 215.331634 -5.789068 -1.426676
C 214.634431 -2.607533 -1.079336
C 213.347494 -3.031569 -1.591075
C 212.439536 -2.125836 -1.243872
C 213.101896 -1.078091 -0.493155
N 214.426408 -1.420272 -0.433211
N 217.469817 -1.462462 -0.535060
C 216.251744 4.703487 1.793804
C 215.773481 5.656203 0.886783
C 215.748161 7.008872 1.232222
C 216.198838 7.416646 2.488426
C 216.674011 6.473125 3.400011
C 216.698387 5.120710 3.054229
H 211.716592 1.915017 2.177542
H 213.701318 3.615548 2.905870
H 215.221517 0.893721 0.080023
H 218.877367 4.309771 1.216318
H 220.635133 2.597199 0.469818
H 220.313726 -2.892736 0.202482
H 218.328995 -4.614234 -0.474775
H 216.606732 -3.727482 -3.809477
H 216.653165 -5.867311 -5.069507
H 215.849415 -7.960794 -3.991704
H 215.002710 -7.901813 -1.652578
H 214.962133 -5.753054 -0.404017
H 213.152851 -3.920405 -2.164219
H 211.395093 -2.177560 -1.491412
H 216.808692 -0.691971 -0.571157
H 215.423213 5.328743 -0.089718
H 215.376233 7.736474 0.517991
H 216.179775 8.468257 2.756104
H 217.026889 6.782425 4.378516
H 217.068023 4.376388 3.756379
C 223.130046 -0.001356 0.003308
C 223.923698 1.108467 0.809267
C 223.416972 1.933209 1.793161
C 224.453871 2.821908 2.176401
C 225.563312 2.507106 1.420157
N 225.252361 1.416331 0.647356
C 226.952938 3.267218 1.428801
C 228.087746 2.613377 1.065148
C 229.374677 3.274692 0.999209
C 230.282639 2.386406 0.609530
N 228.295777 1.314723 0.690220
C 229.620285 1.113470 0.407043
C 230.284084 -0.001356 0.003308
C 229.490447 -1.357279 -0.203571
C 229.997214 -2.635490 -0.083610
C 228.960312 -3.536988 -0.435689
C 227.850830 -2.781510 -0.752177
C 226.461178 -3.328233 -1.280249
C 226.470304 -4.606452 -2.030078
C 226.948365 -4.646706 -3.344963
C 226.973370 -5.851698 -4.049982
C 226.522582 -7.024620 -3.442955
C 226.047639 -6.994116 -2.131272
C 226.023582 -5.789068 -1.426676
C 225.326379 -2.607533 -1.079336
C 224.039442 -3.031569 -1.591075
C 223.131484 -2.125836 -1.243872
C 223.793844 -1.078091 -0.493155
N 225.118356 -1.420272 -0.433211
N 228.161765 -1.462462 -0.535060
C 226.943692 4.703487 1.793804
C 226.465429 5.656203 0.886783
C 226.440109 7.008872 1.232222
C 226.890786 7.416646 2.488426
C 227.365959 6.473125 3.400011
C 227.390335 5.120710 3.054229
H 222.408540 1.915017 2.177542
H 224.393266 3.615548 2.905870
H 225.913465 0.893721 0.080023
H 229.569315 4.309771 1.216318
H 231.327081 2.597199 0.469818
H 231.005674 -2.892736 0.202482
H 229.020943 -4.614234 -0.474775
H 227.298680 -3.727482 -3.809477
H 227.345113 -5.867311 -5.069507
H 226.541363 -7.960794 -3.991704
H 225.694658 -7.901813 -1.652578
H 225.654081 -5.753054 -0.404017
H 223.844799 -3.920405 -2.164219
H 222.087041 -2.177560 -1.491412
H 227.500640 -0.691971 -0.571157
H 226.115161 5.328743 -0.089718
H 226.068181 7.736474 0.517991
H 226.871723 8.468257 2.756104
H 227.718837 6.782425 4.378516
H 227.759971 4.376388 3.756379
