 xtb: 6.5.1 (b24c23e)
          07272214003D

300334  0     0  0            999 V2000
   59.3118    0.0625    0.0509 C   0  0  0  0  0  0  0  0  0  0  0  0
   59.9204    1.2326    0.4853 C   0  0  0  0  0  0  0  0  0  0  0  0
   59.2660    2.4105    0.9445 C   0  0  0  0  0  0  0  0  0  0  0  0
   60.2259    3.3269    1.2692 C   0  0  0  0  0  0  0  0  0  0  0  0
   61.4992    2.7429    1.0102 C   0  0  0  0  0  0  0  0  0  0  0  0
   61.2630    1.4777    0.5496 N   0  0  0  0  0  0  0  0  0  0  0  0
   62.7603    3.3160    1.2020 C   0  0  0  0  0  0  0  0  0  0  0  0
   62.7957    4.7211    1.6756 C   0  0  0  0  0  0  0  0  0  0  0  0
   62.2476    5.7168    0.9625 C   0  0  0  0  0  0  0  0  0  0  0  0
   62.2592    7.1495    1.4286 C   0  0  0  0  0  0  0  0  0  0  0  0
   63.2343    7.3495    2.5037 N   0  0  0  0  0  0  0  0  0  0  0  0
   63.6159    6.3041    3.3038 C   0  0  0  0  0  0  0  0  0  0  0  0
   63.4584    5.0200    2.9370 C   0  0  0  0  0  0  0  0  0  0  0  0
   63.9753    2.6616    0.9744 C   0  0  0  0  0  0  0  0  0  0  0  0
   65.2758    3.2869    1.1385 C   0  0  0  0  0  0  0  0  0  0  0  0
   66.1936    2.3516    0.8189 C   0  0  0  0  0  0  0  0  0  0  0  0
   64.1239    1.3794    0.5488 N   0  0  0  0  0  0  0  0  0  0  0  0
   65.4536    1.1596    0.4497 C   0  0  0  0  0  0  0  0  0  0  0  0
   66.0820   -0.0290    0.0443 C   0  0  0  0  0  0  0  0  0  0  0  0
   65.4521   -1.2133   -0.3697 C   0  0  0  0  0  0  0  0  0  0  0  0
   66.1004   -2.4191   -0.7512 C   0  0  0  0  0  0  0  0  0  0  0  0
   65.1365   -3.3315   -1.0781 C   0  0  0  0  0  0  0  0  0  0  0  0
   63.8677   -2.7088   -0.9145 C   0  0  0  0  0  0  0  0  0  0  0  0
   64.1103   -1.4325   -0.4810 N   0  0  0  0  0  0  0  0  0  0  0  0
   62.6069   -3.2797   -1.1206 C   0  0  0  0  0  0  0  0  0  0  0  0
   62.5792   -4.6834   -1.5968 C   0  0  0  0  0  0  0  0  0  0  0  0
   61.9932   -5.6568   -0.8832 C   0  0  0  0  0  0  0  0  0  0  0  0
   61.9394   -7.0859   -1.3566 C   0  0  0  0  0  0  0  0  0  0  0  0
   62.9182   -7.3280   -2.4200 N   0  0  0  0  0  0  0  0  0  0  0  0
   63.3364   -6.2991   -3.2245 C   0  0  0  0  0  0  0  0  0  0  0  0
   63.2278   -5.0095   -2.8595 C   0  0  0  0  0  0  0  0  0  0  0  0
   61.3918   -2.6204   -0.9070 C   0  0  0  0  0  0  0  0  0  0  0  0
   60.0856   -3.1977   -1.1829 C   0  0  0  0  0  0  0  0  0  0  0  0
   59.1746   -2.2609   -0.8497 C   0  0  0  0  0  0  0  0  0  0  0  0
   59.9230   -1.1076   -0.3821 C   0  0  0  0  0  0  0  0  0  0  0  0
   61.2537   -1.3565   -0.4386 N   0  0  0  0  0  0  0  0  0  0  0  0
   58.2263    0.0728    0.0513 H   0  0  0  0  0  0  0  0  0  0  0  0
   58.1962    2.5259    1.0181 H   0  0  0  0  0  0  0  0  0  0  0  0
   60.0726    4.3183    1.6635 H   0  0  0  0  0  0  0  0  0  0  0  0
   61.9906    0.8183    0.2948 H   0  0  0  0  0  0  0  0  0  0  0  0
   61.7569    5.5365    0.0131 H   0  0  0  0  0  0  0  0  0  0  0  0
   61.2504    7.4482    1.7708 H   0  0  0  0  0  0  0  0  0  0  0  0
   62.5291    7.8151    0.5974 H   0  0  0  0  0  0  0  0  0  0  0  0
   63.1723    8.2537    2.9487 H   0  0  0  0  0  0  0  0  0  0  0  0
   64.1289    6.5935    4.2155 H   0  0  0  0  0  0  0  0  0  0  0  0
   63.8100    4.2093    3.5590 H   0  0  0  0  0  0  0  0  0  0  0  0
   65.4415    4.3062    1.4477 H   0  0  0  0  0  0  0  0  0  0  0  0
   67.2686    2.4366    0.8159 H   0  0  0  0  0  0  0  0  0  0  0  0
   67.1692   -2.5609   -0.7639 H   0  0  0  0  0  0  0  0  0  0  0  0
   65.2864   -4.3495   -1.3991 H   0  0  0  0  0  0  0  0  0  0  0  0
   63.3850   -0.7572   -0.2628 H   0  0  0  0  0  0  0  0  0  0  0  0
   61.5130   -5.4575    0.0676 H   0  0  0  0  0  0  0  0  0  0  0  0
   60.9217   -7.3320   -1.7138 H   0  0  0  0  0  0  0  0  0  0  0  0
   62.1656   -7.7684   -0.5265 H   0  0  0  0  0  0  0  0  0  0  0  0
   62.8193   -8.2287   -2.8659 H   0  0  0  0  0  0  0  0  0  0  0  0
   63.8376   -6.6091   -4.1359 H   0  0  0  0  0  0  0  0  0  0  0  0
   63.6060   -4.2137   -3.4855 H   0  0  0  0  0  0  0  0  0  0  0  0
   59.9136   -4.1812   -1.5899 H   0  0  0  0  0  0  0  0  0  0  0  0
   58.0987   -2.3125   -0.9125 H   0  0  0  0  0  0  0  0  0  0  0  0
  109.7965   -0.0782   -0.0181 C   0  0  0  0  0  0  0  0  0  0  0  0
  109.1865   -1.2945   -0.2948 C   0  0  0  0  0  0  0  0  0  0  0  0
  109.8383   -2.5393   -0.5231 C   0  0  0  0  0  0  0  0  0  0  0  0
  108.8779   -3.4791   -0.7709 C   0  0  0  0  0  0  0  0  0  0  0  0
  107.6073   -2.8374   -0.7138 C   0  0  0  0  0  0  0  0  0  0  0  0
  107.8449   -1.5257   -0.4111 N   0  0  0  0  0  0  0  0  0  0  0  0
  106.3467   -3.4099   -0.9107 C   0  0  0  0  0  0  0  0  0  0  0  0
  106.3087   -4.8479   -1.2709 C   0  0  0  0  0  0  0  0  0  0  0  0
  106.9026   -5.3132   -2.3804 C   0  0  0  0  0  0  0  0  0  0  0  0
  106.8921   -6.7728   -2.7539 C   0  0  0  0  0  0  0  0  0  0  0  0
  105.8719   -7.5065   -2.0004 N   0  0  0  0  0  0  0  0  0  0  0  0
  105.4390   -7.0473   -0.7834 C   0  0  0  0  0  0  0  0  0  0  0  0
  105.5935   -5.7683   -0.3983 C   0  0  0  0  0  0  0  0  0  0  0  0
  105.1339   -2.7234   -0.7907 C   0  0  0  0  0  0  0  0  0  0  0  0
  103.8359   -3.3194   -1.0537 C   0  0  0  0  0  0  0  0  0  0  0  0
  102.9191   -2.3566   -0.8259 C   0  0  0  0  0  0  0  0  0  0  0  0
  104.9859   -1.4210   -0.4322 N   0  0  0  0  0  0  0  0  0  0  0  0
  103.6577   -1.1716   -0.4318 C   0  0  0  0  0  0  0  0  0  0  0  0
  103.0291    0.0351   -0.0846 C   0  0  0  0  0  0  0  0  0  0  0  0
  103.6591    1.2383    0.2701 C   0  0  0  0  0  0  0  0  0  0  0  0
  103.0117    2.4496    0.6354 C   0  0  0  0  0  0  0  0  0  0  0  0
  103.9763    3.3884    0.8740 C   0  0  0  0  0  0  0  0  0  0  0  0
  105.2444    2.7813    0.6559 C   0  0  0  0  0  0  0  0  0  0  0  0
  105.0012    1.4810    0.3021 N   0  0  0  0  0  0  0  0  0  0  0  0
  106.5054    3.3726    0.7924 C   0  0  0  0  0  0  0  0  0  0  0  0
  106.5329    4.8093    1.1568 C   0  0  0  0  0  0  0  0  0  0  0  0
  107.1242    5.2413    2.2809 C   0  0  0  0  0  0  0  0  0  0  0  0
  107.1787    6.6993    2.6564 C   0  0  0  0  0  0  0  0  0  0  0  0
  106.1939    7.4776    1.9001 N   0  0  0  0  0  0  0  0  0  0  0  0
  105.7698    7.0484    0.6686 C   0  0  0  0  0  0  0  0  0  0  0  0
  105.8782    5.7671    0.2759 C   0  0  0  0  0  0  0  0  0  0  0  0
  107.7199    2.7033    0.6088 C   0  0  0  0  0  0  0  0  0  0  0  0
  109.0271    3.3350    0.6957 C   0  0  0  0  0  0  0  0  0  0  0  0
  109.9370    2.3645    0.4747 C   0  0  0  0  0  0  0  0  0  0  0  0
  109.1868    1.1436    0.2389 C   0  0  0  0  0  0  0  0  0  0  0  0
  107.8563    1.3873    0.3161 N   0  0  0  0  0  0  0  0  0  0  0  0
  110.8818   -0.0927   -0.0032 H   0  0  0  0  0  0  0  0  0  0  0  0
  110.9065   -2.6846   -0.4916 H   0  0  0  0  0  0  0  0  0  0  0  0
  109.0293   -4.5281   -0.9673 H   0  0  0  0  0  0  0  0  0  0  0  0
  107.1186   -0.8277   -0.2900 H   0  0  0  0  0  0  0  0  0  0  0  0
  107.4329   -4.6585   -3.0623 H   0  0  0  0  0  0  0  0  0  0  0  0
  107.8888   -7.2193   -2.5768 H   0  0  0  0  0  0  0  0  0  0  0  0
  106.6717   -6.8878   -3.8239 H   0  0  0  0  0  0  0  0  0  0  0  0
  105.9310   -8.5092   -2.1035 H   0  0  0  0  0  0  0  0  0  0  0  0
  104.8896   -7.7738   -0.1931 H   0  0  0  0  0  0  0  0  0  0  0  0
  105.2015   -5.4125    0.5438 H   0  0  0  0  0  0  0  0  0  0  0  0
  103.6717   -4.3345   -1.3772 H   0  0  0  0  0  0  0  0  0  0  0  0
  101.8459   -2.4141   -0.9141 H   0  0  0  0  0  0  0  0  0  0  0  0
  101.9431    2.5742    0.7067 H   0  0  0  0  0  0  0  0  0  0  0  0
  103.8273    4.4113    1.1795 H   0  0  0  0  0  0  0  0  0  0  0  0
  105.7259    0.7998    0.1015 H   0  0  0  0  0  0  0  0  0  0  0  0
  107.6087    4.5593    2.9697 H   0  0  0  0  0  0  0  0  0  0  0  0
  108.1948    7.1007    2.4824 H   0  0  0  0  0  0  0  0  0  0  0  0
  106.9596    6.8234    3.7253 H   0  0  0  0  0  0  0  0  0  0  0  0
  106.2926    8.4764    2.0127 H   0  0  0  0  0  0  0  0  0  0  0  0
  105.2642    7.8022    0.0733 H   0  0  0  0  0  0  0  0  0  0  0  0
  105.4950    5.4368   -0.6792 H   0  0  0  0  0  0  0  0  0  0  0  0
  109.2006    4.3819    0.8868 H   0  0  0  0  0  0  0  0  0  0  0  0
  111.0132    2.4391    0.4564 H   0  0  0  0  0  0  0  0  0  0  0  0
   67.5003   -0.0479    0.0457 C   0  0  0  0  0  0  0  0  0  0  0  0
   68.7147   -0.0578    0.0421 C   0  0  0  0  0  0  0  0  0  0  0  0
   78.4446   -0.0398    0.0478 C   0  0  0  0  0  0  0  0  0  0  0  0
   79.6633    0.0060    0.0511 C   0  0  0  0  0  0  0  0  0  0  0  0
   89.4505   -0.0172   -0.0076 C   0  0  0  0  0  0  0  0  0  0  0  0
   90.6694    0.0265   -0.0084 C   0  0  0  0  0  0  0  0  0  0  0  0
  100.3964    0.0618   -0.0811 C   0  0  0  0  0  0  0  0  0  0  0  0
  101.6107    0.0526   -0.0851 C   0  0  0  0  0  0  0  0  0  0  0  0
   70.1317   -0.0737    0.0415 C   0  0  0  0  0  0  0  0  0  0  0  0
   70.7546   -0.2386    1.2885 C   0  0  0  0  0  0  0  0  0  0  0  0
   70.1105   -0.3674    2.5472 C   0  0  0  0  0  0  0  0  0  0  0  0
   71.0795   -0.5026    3.5029 C   0  0  0  0  0  0  0  0  0  0  0  0
   72.3448   -0.4690    2.8543 C   0  0  0  0  0  0  0  0  0  0  0  0
   72.0978   -0.3009    1.5187 N   0  0  0  0  0  0  0  0  0  0  0  0
   73.6055   -0.5693    3.4523 C   0  0  0  0  0  0  0  0  0  0  0  0
   73.6261   -0.7813    4.9220 C   0  0  0  0  0  0  0  0  0  0  0  0
   73.1083   -1.8842    5.4828 C   0  0  0  0  0  0  0  0  0  0  0  0
   73.1683   -2.1400    6.9660 C   0  0  0  0  0  0  0  0  0  0  0  0
   73.4607   -0.9084    7.7042 N   0  0  0  0  0  0  0  0  0  0  0  0
   74.1333    0.1232    7.1014 C   0  0  0  0  0  0  0  0  0  0  0  0
   74.2203    0.2458    5.7653 C   0  0  0  0  0  0  0  0  0  0  0  0
   74.8323   -0.4873    2.7915 C   0  0  0  0  0  0  0  0  0  0  0  0
   76.1081   -0.6659    3.4589 C   0  0  0  0  0  0  0  0  0  0  0  0
   77.0570   -0.5226    2.5111 C   0  0  0  0  0  0  0  0  0  0  0  0
   75.0287   -0.2585    1.4627 N   0  0  0  0  0  0  0  0  0  0  0  0
   76.3638   -0.2641    1.2665 C   0  0  0  0  0  0  0  0  0  0  0  0
   77.0356   -0.0615    0.0418 C   0  0  0  0  0  0  0  0  0  0  0  0
   76.4004    0.1146   -1.2044 C   0  0  0  0  0  0  0  0  0  0  0  0
   77.0339    0.2451   -2.4661 C   0  0  0  0  0  0  0  0  0  0  0  0
   76.0614    0.3777   -3.4184 C   0  0  0  0  0  0  0  0  0  0  0  0
   74.8000    0.3368   -2.7649 C   0  0  0  0  0  0  0  0  0  0  0  0
   75.0558    0.1678   -1.4292 N   0  0  0  0  0  0  0  0  0  0  0  0
   73.5413    0.4212   -3.3703 C   0  0  0  0  0  0  0  0  0  0  0  0
   73.5272    0.6509   -4.8371 C   0  0  0  0  0  0  0  0  0  0  0  0
   74.0291    1.7724   -5.3755 C   0  0  0  0  0  0  0  0  0  0  0  0
   73.9746    2.0551   -6.8538 C   0  0  0  0  0  0  0  0  0  0  0  0
   73.6907    0.8368   -7.6169 N   0  0  0  0  0  0  0  0  0  0  0  0
   73.0376   -0.2183   -7.0346 C   0  0  0  0  0  0  0  0  0  0  0  0
   72.9536   -0.3702   -5.7011 C   0  0  0  0  0  0  0  0  0  0  0  0
   72.3114    0.3138   -2.7178 C   0  0  0  0  0  0  0  0  0  0  0  0
   71.0296    0.4533   -3.3871 C   0  0  0  0  0  0  0  0  0  0  0  0
   70.0833    0.3070   -2.4371 C   0  0  0  0  0  0  0  0  0  0  0  0
   70.7880    0.0894   -1.1888 C   0  0  0  0  0  0  0  0  0  0  0  0
   72.1243    0.1002   -1.3890 N   0  0  0  0  0  0  0  0  0  0  0  0
   69.0424   -0.3507    2.6926 H   0  0  0  0  0  0  0  0  0  0  0  0
   70.9354   -0.6080    4.5658 H   0  0  0  0  0  0  0  0  0  0  0  0
   72.8131   -0.2285    0.8030 H   0  0  0  0  0  0  0  0  0  0  0  0
   72.6862   -2.6840    4.8854 H   0  0  0  0  0  0  0  0  0  0  0  0
   73.9320   -2.9084    7.1909 H   0  0  0  0  0  0  0  0  0  0  0  0
   72.2043   -2.5280    7.3218 H   0  0  0  0  0  0  0  0  0  0  0  0
   73.6593   -1.0576    8.6830 H   0  0  0  0  0  0  0  0  0  0  0  0
   74.5144    0.8762    7.7838 H   0  0  0  0  0  0  0  0  0  0  0  0
   74.6881    1.1059    5.3078 H   0  0  0  0  0  0  0  0  0  0  0  0
   76.2381   -0.8857    4.5063 H   0  0  0  0  0  0  0  0  0  0  0  0
   78.1259   -0.5955    2.6190 H   0  0  0  0  0  0  0  0  0  0  0  0
   78.0987    0.2231   -2.6233 H   0  0  0  0  0  0  0  0  0  0  0  0
   76.2019    0.4817   -4.4819 H   0  0  0  0  0  0  0  0  0  0  0  0
   74.3443    0.0913   -0.7100 H   0  0  0  0  0  0  0  0  0  0  0  0
   74.4340    2.5681   -4.7610 H   0  0  0  0  0  0  0  0  0  0  0  0
   73.2087    2.8242   -7.0677 H   0  0  0  0  0  0  0  0  0  0  0  0
   74.9386    2.4545   -7.1976 H   0  0  0  0  0  0  0  0  0  0  0  0
   73.4886    1.0037   -8.5920 H   0  0  0  0  0  0  0  0  0  0  0  0
   72.6684   -0.9633   -7.7322 H   0  0  0  0  0  0  0  0  0  0  0  0
   72.5023   -1.2485   -5.2619 H   0  0  0  0  0  0  0  0  0  0  0  0
   70.8949    0.6492   -4.4388 H   0  0  0  0  0  0  0  0  0  0  0  0
   69.0107    0.3478   -2.5412 H   0  0  0  0  0  0  0  0  0  0  0  0
   81.0717    0.0213    0.0512 C   0  0  0  0  0  0  0  0  0  0  0  0
   81.7192   -0.2140    1.2812 C   0  0  0  0  0  0  0  0  0  0  0  0
   81.1046   -0.3966    2.5448 C   0  0  0  0  0  0  0  0  0  0  0  0
   82.0921   -0.5546    3.4781 C   0  0  0  0  0  0  0  0  0  0  0  0
   83.3431   -0.4838    2.8081 C   0  0  0  0  0  0  0  0  0  0  0  0
   83.0672   -0.2712    1.4833 N   0  0  0  0  0  0  0  0  0  0  0  0
   84.6103   -0.5858    3.3931 C   0  0  0  0  0  0  0  0  0  0  0  0
   84.6385   -0.8323    4.8582 C   0  0  0  0  0  0  0  0  0  0  0  0
   84.1551   -1.9631    5.3932 C   0  0  0  0  0  0  0  0  0  0  0  0
   84.2245   -2.2507    6.8701 C   0  0  0  0  0  0  0  0  0  0  0  0
   84.4784   -1.0275    7.6360 N   0  0  0  0  0  0  0  0  0  0  0  0
   85.1205    0.0370    7.0571 C   0  0  0  0  0  0  0  0  0  0  0  0
   85.2031    0.1924    5.7242 C   0  0  0  0  0  0  0  0  0  0  0  0
   85.8369   -0.4777    2.7376 C   0  0  0  0  0  0  0  0  0  0  0  0
   87.1117   -0.6551    3.4079 C   0  0  0  0  0  0  0  0  0  0  0  0
   88.0631   -0.4971    2.4650 C   0  0  0  0  0  0  0  0  0  0  0  0
   86.0365   -0.2315    1.4129 N   0  0  0  0  0  0  0  0  0  0  0  0
   87.3725   -0.2319    1.2210 C   0  0  0  0  0  0  0  0  0  0  0  0
   88.0421   -0.0315   -0.0047 C   0  0  0  0  0  0  0  0  0  0  0  0
   87.3936    0.1495   -1.2437 C   0  0  0  0  0  0  0  0  0  0  0  0
   88.0053    0.2551   -2.5174 C   0  0  0  0  0  0  0  0  0  0  0  0
   87.0171    0.4140   -3.4502 C   0  0  0  0  0  0  0  0  0  0  0  0
   85.7694    0.4189   -2.7705 C   0  0  0  0  0  0  0  0  0  0  0  0
   86.0468    0.2414   -1.4408 N   0  0  0  0  0  0  0  0  0  0  0  0
   84.5030    0.5737   -3.3471 C   0  0  0  0  0  0  0  0  0  0  0  0
   84.4738    0.8182   -4.8116 C   0  0  0  0  0  0  0  0  0  0  0  0
   85.0344    1.9082   -5.3568 C   0  0  0  0  0  0  0  0  0  0  0  0
   84.9662    2.1980   -6.8333 C   0  0  0  0  0  0  0  0  0  0  0  0
   84.6100    0.9965   -7.5926 N   0  0  0  0  0  0  0  0  0  0  0  0
   83.8968   -0.0151   -7.0021 C   0  0  0  0  0  0  0  0  0  0  0  0
   83.8211   -0.1616   -5.6678 C   0  0  0  0  0  0  0  0  0  0  0  0
   83.2780    0.5203   -2.6810 C   0  0  0  0  0  0  0  0  0  0  0  0
   82.0076    0.7787   -3.3332 C   0  0  0  0  0  0  0  0  0  0  0  0
   81.0558    0.6239   -2.3897 C   0  0  0  0  0  0  0  0  0  0  0  0
   81.7425    0.2764   -1.1640 C   0  0  0  0  0  0  0  0  0  0  0  0
   83.0767    0.2384   -1.3637 N   0  0  0  0  0  0  0  0  0  0  0  0
   80.0422   -0.3922    2.7175 H   0  0  0  0  0  0  0  0  0  0  0  0
   81.9670   -0.6974    4.5388 H   0  0  0  0  0  0  0  0  0  0  0  0
   83.7644   -0.1671    0.7534 H   0  0  0  0  0  0  0  0  0  0  0  0
   83.7553   -2.7605    4.7776 H   0  0  0  0  0  0  0  0  0  0  0  0
   85.0122   -2.9996    7.0773 H   0  0  0  0  0  0  0  0  0  0  0  0
   83.2734   -2.6768    7.2170 H   0  0  0  0  0  0  0  0  0  0  0  0
   84.6817   -1.1927    8.6113 H   0  0  0  0  0  0  0  0  0  0  0  0
   85.4796    0.7851    7.7566 H   0  0  0  0  0  0  0  0  0  0  0  0
   85.6460    1.0754    5.2861 H   0  0  0  0  0  0  0  0  0  0  0  0
   87.2398   -0.8840    4.4536 H   0  0  0  0  0  0  0  0  0  0  0  0
   89.1319   -0.5649    2.5760 H   0  0  0  0  0  0  0  0  0  0  0  0
   89.0654    0.1983   -2.6964 H   0  0  0  0  0  0  0  0  0  0  0  0
   87.1396    0.5082   -4.5168 H   0  0  0  0  0  0  0  0  0  0  0  0
   85.3515    0.1857   -0.7039 H   0  0  0  0  0  0  0  0  0  0  0  0
   85.5010    2.6748   -4.7490 H   0  0  0  0  0  0  0  0  0  0  0  0
   84.2346    3.0040   -7.0312 H   0  0  0  0  0  0  0  0  0  0  0  0
   85.9418    2.5506   -7.1944 H   0  0  0  0  0  0  0  0  0  0  0  0
   84.4057    1.1755   -8.5653 H   0  0  0  0  0  0  0  0  0  0  0  0
   83.4721   -0.7348   -7.6945 H   0  0  0  0  0  0  0  0  0  0  0  0
   83.3185   -1.0079   -5.2216 H   0  0  0  0  0  0  0  0  0  0  0  0
   81.8832    1.0574   -4.3673 H   0  0  0  0  0  0  0  0  0  0  0  0
   79.9904    0.7483   -2.4873 H   0  0  0  0  0  0  0  0  0  0  0  0
   92.0784    0.0497   -0.0121 C   0  0  0  0  0  0  0  0  0  0  0  0
   92.7249   -0.1710    1.2211 C   0  0  0  0  0  0  0  0  0  0  0  0
   92.1018   -0.3599    2.4806 C   0  0  0  0  0  0  0  0  0  0  0  0
   93.0818   -0.5042    3.4232 C   0  0  0  0  0  0  0  0  0  0  0  0
   94.3382   -0.4163    2.7650 C   0  0  0  0  0  0  0  0  0  0  0  0
   94.0716   -0.2098    1.4365 N   0  0  0  0  0  0  0  0  0  0  0  0
   95.6015   -0.4906    3.3615 C   0  0  0  0  0  0  0  0  0  0  0  0
   95.6295   -0.7406    4.8250 C   0  0  0  0  0  0  0  0  0  0  0  0
   95.1582   -1.8802    5.3527 C   0  0  0  0  0  0  0  0  0  0  0  0
   95.2275   -2.1775    6.8276 C   0  0  0  0  0  0  0  0  0  0  0  0
   95.4789   -0.9595    7.6025 N   0  0  0  0  0  0  0  0  0  0  0  0
   96.1051    0.1171    7.0300 C   0  0  0  0  0  0  0  0  0  0  0  0
   96.1818    0.2846    5.6980 C   0  0  0  0  0  0  0  0  0  0  0  0
   96.8251   -0.3545    2.7030 C   0  0  0  0  0  0  0  0  0  0  0  0
   98.1132   -0.4861    3.3619 C   0  0  0  0  0  0  0  0  0  0  0  0
   99.0508   -0.3230    2.4060 C   0  0  0  0  0  0  0  0  0  0  0  0
   97.0000   -0.1254    1.3752 N   0  0  0  0  0  0  0  0  0  0  0  0
   98.3346   -0.1015    1.1649 C   0  0  0  0  0  0  0  0  0  0  0  0
   98.9793    0.0747   -0.0696 C   0  0  0  0  0  0  0  0  0  0  0  0
   98.3455    0.2492   -1.3097 C   0  0  0  0  0  0  0  0  0  0  0  0
   98.9787    0.3841   -2.5732 C   0  0  0  0  0  0  0  0  0  0  0  0
   98.0018    0.5312   -3.5191 C   0  0  0  0  0  0  0  0  0  0  0  0
   96.7423    0.5005   -2.8591 C   0  0  0  0  0  0  0  0  0  0  0  0
   97.0006    0.3188   -1.5274 N   0  0  0  0  0  0  0  0  0  0  0  0
   95.4767    0.6247   -3.4426 C   0  0  0  0  0  0  0  0  0  0  0  0
   95.4431    0.8580   -4.9085 C   0  0  0  0  0  0  0  0  0  0  0  0
   95.9808    1.9551   -5.4623 C   0  0  0  0  0  0  0  0  0  0  0  0
   95.9105    2.2292   -6.9418 C   0  0  0  0  0  0  0  0  0  0  0  0
   95.5869    1.0118   -7.6903 N   0  0  0  0  0  0  0  0  0  0  0  0
   94.8941   -0.0097   -7.0928 C   0  0  0  0  0  0  0  0  0  0  0  0
   94.8152   -0.1442   -5.7574 C   0  0  0  0  0  0  0  0  0  0  0  0
   94.2563    0.5483   -2.7692 C   0  0  0  0  0  0  0  0  0  0  0  0
   92.9761    0.7721   -3.4144 C   0  0  0  0  0  0  0  0  0  0  0  0
   92.0356    0.6148   -2.4601 C   0  0  0  0  0  0  0  0  0  0  0  0
   92.7389    0.2981   -1.2345 C   0  0  0  0  0  0  0  0  0  0  0  0
   94.0715    0.2805   -1.4462 N   0  0  0  0  0  0  0  0  0  0  0  0
   91.0379   -0.3698    2.6433 H   0  0  0  0  0  0  0  0  0  0  0  0
   92.9491   -0.6478    4.4830 H   0  0  0  0  0  0  0  0  0  0  0  0
   94.7776   -0.0978    0.7166 H   0  0  0  0  0  0  0  0  0  0  0  0
   94.7695   -2.6786    4.7312 H   0  0  0  0  0  0  0  0  0  0  0  0
   96.0164   -2.9262    7.0300 H   0  0  0  0  0  0  0  0  0  0  0  0
   94.2770   -2.6083    7.1710 H   0  0  0  0  0  0  0  0  0  0  0  0
   95.6867   -1.1308    8.5758 H   0  0  0  0  0  0  0  0  0  0  0  0
   96.4575    0.8638    7.7345 H   0  0  0  0  0  0  0  0  0  0  0  0
   96.6110    1.1777    5.2666 H   0  0  0  0  0  0  0  0  0  0  0  0
   98.2572   -0.6889    4.4110 H   0  0  0  0  0  0  0  0  0  0  0  0
  100.1245   -0.3543    2.5020 H   0  0  0  0  0  0  0  0  0  0  0  0
  100.0455    0.3629   -2.7282 H   0  0  0  0  0  0  0  0  0  0  0  0
   98.1372    0.6432   -4.5824 H   0  0  0  0  0  0  0  0  0  0  0  0
   96.2912    0.2426   -0.8062 H   0  0  0  0  0  0  0  0  0  0  0  0
   96.4283    2.7377   -4.8606 H   0  0  0  0  0  0  0  0  0  0  0  0
   95.1598    3.0148   -7.1502 H   0  0  0  0  0  0  0  0  0  0  0  0
   96.8783    2.6023   -7.3032 H   0  0  0  0  0  0  0  0  0  0  0  0
   95.3850    1.1754   -8.6662 H   0  0  0  0  0  0  0  0  0  0  0  0
   94.4895   -0.7461   -7.7798 H   0  0  0  0  0  0  0  0  0  0  0  0
   94.3303   -0.9974   -5.3049 H   0  0  0  0  0  0  0  0  0  0  0  0
   92.8384    1.0314   -4.4518 H   0  0  0  0  0  0  0  0  0  0  0  0
   90.9672    0.7168   -2.5506 H   0  0  0  0  0  0  0  0  0  0  0  0
  1  2  4  0  0  0  0
  2  3  4  0  0  0  0
  3  4  2  0  0  0  0
  4  5  4  0  0  0  0
  2  6  4  0  0  0  0
  5  6  4  0  0  0  0
  5  7  4  0  0  0  0
  7  8  1  0  0  0  0
  8  9  2  0  0  0  0
  9 10  1  0  0  0  0
 10 11  1  0  0  0  0
 11 12  1  0  0  0  0
  8 13  1  0  0  0  0
 12 13  2  0  0  0  0
  7 14  4  0  0  0  0
 14 15  1  0  0  0  0
 15 16  2  0  0  0  0
 14 17  4  0  0  0  0
 16 18  1  0  0  0  0
 17 18  4  0  0  0  0
 18 19  4  0  0  0  0
 19 20  4  0  0  0  0
 20 21  4  0  0  0  0
 21 22  2  0  0  0  0
 22 23  4  0  0  0  0
 20 24  4  0  0  0  0
 23 24  4  0  0  0  0
 23 25  4  0  0  0  0
 25 26  1  0  0  0  0
 26 27  2  0  0  0  0
 27 28  1  0  0  0  0
 28 29  1  0  0  0  0
 29 30  1  0  0  0  0
 26 31  1  0  0  0  0
 30 31  2  0  0  0  0
 25 32  4  0  0  0  0
 32 33  1  0  0  0  0
 33 34  2  0  0  0  0
  1 35  4  0  0  0  0
 34 35  1  0  0  0  0
 32 36  4  0  0  0  0
 35 36  4  0  0  0  0
  1 37  1  0  0  0  0
  3 38  1  0  0  0  0
  4 39  1  0  0  0  0
  6 40  1  0  0  0  0
  9 41  1  0  0  0  0
 10 42  1  0  0  0  0
 10 43  1  0  0  0  0
 11 44  1  0  0  0  0
 12 45  1  0  0  0  0
 13 46  1  0  0  0  0
 15 47  1  0  0  0  0
 16 48  1  0  0  0  0
 21 49  1  0  0  0  0
 22 50  1  0  0  0  0
 24 51  1  0  0  0  0
 27 52  1  0  0  0  0
 28 53  1  0  0  0  0
 28 54  1  0  0  0  0
 29 55  1  0  0  0  0
 30 56  1  0  0  0  0
 31 57  1  0  0  0  0
 33 58  1  0  0  0  0
 34 59  1  0  0  0  0
 60 61  4  0  0  0  0
 61 62  4  0  0  0  0
 62 63  2  0  0  0  0
 63 64  4  0  0  0  0
 61 65  4  0  0  0  0
 64 65  4  0  0  0  0
 64 66  4  0  0  0  0
 66 67  1  0  0  0  0
 67 68  2  0  0  0  0
 68 69  1  0  0  0  0
 69 70  1  0  0  0  0
 70 71  1  0  0  0  0
 67 72  1  0  0  0  0
 71 72  2  0  0  0  0
 66 73  4  0  0  0  0
 73 74  1  0  0  0  0
 74 75  2  0  0  0  0
 73 76  4  0  0  0  0
 75 77  1  0  0  0  0
 76 77  4  0  0  0  0
 77 78  4  0  0  0  0
 78 79  4  0  0  0  0
 79 80  4  0  0  0  0
 80 81  2  0  0  0  0
 81 82  4  0  0  0  0
 79 83  4  0  0  0  0
 82 83  4  0  0  0  0
 82 84  4  0  0  0  0
 84 85  1  0  0  0  0
 85 86  2  0  0  0  0
 86 87  1  0  0  0  0
 87 88  1  0  0  0  0
 88 89  1  0  0  0  0
 85 90  1  0  0  0  0
 89 90  2  0  0  0  0
 84 91  4  0  0  0  0
 91 92  1  0  0  0  0
 92 93  2  0  0  0  0
 60 94  4  0  0  0  0
 93 94  1  0  0  0  0
 91 95  4  0  0  0  0
 94 95  4  0  0  0  0
 60 96  1  0  0  0  0
 62 97  1  0  0  0  0
 63 98  1  0  0  0  0
 65 99  1  0  0  0  0
 68100  1  0  0  0  0
 69101  1  0  0  0  0
 69102  1  0  0  0  0
 70103  1  0  0  0  0
 71104  1  0  0  0  0
 72105  1  0  0  0  0
 74106  1  0  0  0  0
 75107  1  0  0  0  0
 80108  1  0  0  0  0
 81109  1  0  0  0  0
 83110  1  0  0  0  0
 86111  1  0  0  0  0
 87112  1  0  0  0  0
 87113  1  0  0  0  0
 88114  1  0  0  0  0
 89115  1  0  0  0  0
 90116  1  0  0  0  0
 92117  1  0  0  0  0
 93118  1  0  0  0  0
 19119  1  0  0  0  0
119120  3  0  0  0  0
121122  3  0  0  0  0
123124  3  0  0  0  0
 78126  1  0  0  0  0
125126  3  0  0  0  0
120127  1  0  0  0  0
127128  4  0  0  0  0
128129  4  0  0  0  0
129130  2  0  0  0  0
130131  4  0  0  0  0
128132  4  0  0  0  0
131132  4  0  0  0  0
131133  4  0  0  0  0
133134  1  0  0  0  0
134135  2  0  0  0  0
135136  1  0  0  0  0
136137  1  0  0  0  0
137138  1  0  0  0  0
134139  1  0  0  0  0
138139  2  0  0  0  0
133140  4  0  0  0  0
140141  1  0  0  0  0
141142  2  0  0  0  0
140143  4  0  0  0  0
142144  1  0  0  0  0
143144  4  0  0  0  0
121145  4  0  0  0  0
144145  4  0  0  0  0
145146  4  0  0  0  0
146147  4  0  0  0  0
147148  2  0  0  0  0
148149  4  0  0  0  0
146150  4  0  0  0  0
149150  4  0  0  0  0
149151  4  0  0  0  0
151152  1  0  0  0  0
152153  2  0  0  0  0
153154  1  0  0  0  0
154155  1  0  0  0  0
155156  1  0  0  0  0
152157  1  0  0  0  0
156157  2  0  0  0  0
151158  4  0  0  0  0
158159  1  0  0  0  0
159160  2  0  0  0  0
127161  4  0  0  0  0
160161  1  0  0  0  0
158162  4  0  0  0  0
161162  4  0  0  0  0
129163  1  0  0  0  0
130164  1  0  0  0  0
132165  1  0  0  0  0
135166  1  0  0  0  0
136167  1  0  0  0  0
136168  1  0  0  0  0
137169  1  0  0  0  0
138170  1  0  0  0  0
139171  1  0  0  0  0
141172  1  0  0  0  0
142173  1  0  0  0  0
147174  1  0  0  0  0
148175  1  0  0  0  0
150176  1  0  0  0  0
153177  1  0  0  0  0
154178  1  0  0  0  0
154179  1  0  0  0  0
155180  1  0  0  0  0
156181  1  0  0  0  0
157182  1  0  0  0  0
159183  1  0  0  0  0
160184  1  0  0  0  0
122185  4  0  0  0  0
185186  4  0  0  0  0
186187  4  0  0  0  0
187188  2  0  0  0  0
188189  4  0  0  0  0
186190  4  0  0  0  0
189190  4  0  0  0  0
189191  4  0  0  0  0
191192  1  0  0  0  0
192193  2  0  0  0  0
193194  1  0  0  0  0
194195  1  0  0  0  0
195196  1  0  0  0  0
192197  1  0  0  0  0
196197  2  0  0  0  0
191198  4  0  0  0  0
198199  1  0  0  0  0
199200  2  0  0  0  0
198201  4  0  0  0  0
200202  1  0  0  0  0
201202  4  0  0  0  0
123203  4  0  0  0  0
202203  4  0  0  0  0
203204  4  0  0  0  0
204205  4  0  0  0  0
205206  2  0  0  0  0
206207  4  0  0  0  0
204208  4  0  0  0  0
207208  4  0  0  0  0
207209  4  0  0  0  0
209210  1  0  0  0  0
210211  2  0  0  0  0
211212  1  0  0  0  0
212213  1  0  0  0  0
213214  1  0  0  0  0
210215  1  0  0  0  0
214215  2  0  0  0  0
209216  4  0  0  0  0
216217  1  0  0  0  0
217218  2  0  0  0  0
185219  4  0  0  0  0
218219  1  0  0  0  0
216220  4  0  0  0  0
219220  4  0  0  0  0
187221  1  0  0  0  0
188222  1  0  0  0  0
190223  1  0  0  0  0
193224  1  0  0  0  0
194225  1  0  0  0  0
194226  1  0  0  0  0
195227  1  0  0  0  0
196228  1  0  0  0  0
197229  1  0  0  0  0
199230  1  0  0  0  0
200231  1  0  0  0  0
205232  1  0  0  0  0
206233  1  0  0  0  0
208234  1  0  0  0  0
211235  1  0  0  0  0
212236  1  0  0  0  0
212237  1  0  0  0  0
213238  1  0  0  0  0
214239  1  0  0  0  0
215240  1  0  0  0  0
217241  1  0  0  0  0
218242  1  0  0  0  0
124243  4  0  0  0  0
243244  4  0  0  0  0
244245  4  0  0  0  0
245246  2  0  0  0  0
246247  4  0  0  0  0
244248  4  0  0  0  0
247248  4  0  0  0  0
247249  4  0  0  0  0
249250  1  0  0  0  0
250251  2  0  0  0  0
251252  1  0  0  0  0
252253  1  0  0  0  0
253254  1  0  0  0  0
250255  1  0  0  0  0
254255  2  0  0  0  0
249256  4  0  0  0  0
256257  1  0  0  0  0
257258  2  0  0  0  0
256259  4  0  0  0  0
258260  1  0  0  0  0
259260  4  0  0  0  0
125261  1  0  0  0  0
260261  4  0  0  0  0
261262  4  0  0  0  0
262263  4  0  0  0  0
263264  2  0  0  0  0
264265  4  0  0  0  0
262266  4  0  0  0  0
265266  4  0  0  0  0
265267  4  0  0  0  0
267268  1  0  0  0  0
268269  2  0  0  0  0
269270  1  0  0  0  0
270271  1  0  0  0  0
271272  1  0  0  0  0
268273  1  0  0  0  0
272273  2  0  0  0  0
267274  4  0  0  0  0
274275  1  0  0  0  0
275276  2  0  0  0  0
243277  4  0  0  0  0
276277  1  0  0  0  0
274278  4  0  0  0  0
277278  4  0  0  0  0
245279  1  0  0  0  0
246280  1  0  0  0  0
248281  1  0  0  0  0
251282  1  0  0  0  0
252283  1  0  0  0  0
252284  1  0  0  0  0
253285  1  0  0  0  0
254286  1  0  0  0  0
255287  1  0  0  0  0
257288  1  0  0  0  0
258289  1  0  0  0  0
263290  1  0  0  0  0
264291  1  0  0  0  0
266292  1  0  0  0  0
269293  1  0  0  0  0
270294  1  0  0  0  0
270295  1  0  0  0  0
271296  1  0  0  0  0
272297  1  0  0  0  0
273298  1  0  0  0  0
275299  1  0  0  0  0
276300  1  0  0  0  0
M  END
