598

C 125.298265 -0.005614 -0.060358
C 126.026758 -1.263791 0.504246
C 125.418149 -2.428310 0.913960
C 126.439937 -3.279573 1.408807
C 127.638006 -2.602178 1.290955
N 127.379399 -1.395049 0.691267
C 129.060495 -3.104292 1.780487
C 130.190327 -2.429065 1.435645
C 131.494965 -2.825304 1.924835
C 132.397331 -1.975045 1.449533
N 130.386603 -1.322801 0.651177
C 131.718155 -0.998010 0.621186
C 132.385800 0.004496 -0.009908
C 131.608150 1.037370 -0.930603
C 132.148541 1.772757 -1.967568
C 131.123749 2.606391 -2.480419
C 129.983504 2.349035 -1.749743
C 128.574204 3.054751 -1.933156
C 128.546959 4.393067 -2.566033
C 128.174282 4.538245 -3.908331
C 128.163338 5.800255 -4.505269
C 128.528096 6.924695 -3.763736
C 128.903479 6.788011 -2.426537
C 128.913761 5.525579 -1.830063
C 127.448577 2.433458 -1.493936
C 126.126697 3.022212 -1.617015
C 125.240881 2.170094 -1.109591
C 125.962505 1.015323 -0.633588
N 127.283597 1.223136 -0.879638
N 130.274168 1.355067 -0.845111
C 129.097961 -4.296123 2.661337
C 128.845604 -4.167654 4.032274
C 128.870168 -5.290568 4.861510
C 129.146225 -6.548557 4.323848
C 129.397987 -6.684874 2.957940
C 129.373003 -5.561817 2.128986
H 124.220430 0.042754 0.037769
H 124.359785 -2.635059 0.876891
H 126.312750 -4.266348 1.827960
H 128.080613 -0.705657 0.431489
H 131.706041 -3.656763 2.573439
H 133.450865 -2.025353 1.654895
H 133.170456 1.726826 -2.311799
H 131.208261 3.318099 -3.287816
H 127.890049 3.654398 -4.475515
H 127.869053 5.898369 -5.545164
H 128.519304 7.906258 -4.226693
H 129.188512 7.657618 -1.843103
H 129.204787 5.408275 -0.788421
H 125.898849 3.982791 -2.042742
H 124.177378 2.314418 -1.051795
H 129.590871 0.893666 -0.250165
H 128.633284 -3.181871 4.440482
H 128.674922 -5.176279 5.922915
H 129.166884 -7.421124 4.968923
H 129.615787 -7.659393 2.532982
H 129.570949 -5.654687 1.063313
C 253.266918 -0.036810 -0.040587
C 252.538425 1.010873 -0.937330
C 253.147034 1.878506 -1.815501
C 252.125246 2.689397 -2.374049
C 250.927177 2.293646 -1.811791
N 251.185784 1.236029 -0.976188
C 249.504688 2.950680 -2.056874
C 248.374856 2.350588 -1.593478
C 247.070218 2.962116 -1.742963
C 246.167852 2.169328 -1.176978
N 248.178580 1.168933 -0.927969
C 246.847028 1.003160 -0.647063
C 246.179383 0.004496 -0.009908
C 246.957033 -1.269019 0.531080
C 246.416642 -2.520682 0.753414
C 247.441434 -3.340328 1.288336
C 248.581679 -2.569713 1.367531
C 249.990979 -3.036841 1.927413
C 250.018224 -4.180474 2.867480
C 250.390901 -5.456291 2.425742
C 250.401845 -6.534849 3.312149
C 250.037087 -6.344300 4.645538
C 249.661704 -5.076720 5.092779
C 249.651422 -3.998400 4.205794
C 251.116606 -2.374426 1.553078
C 252.438486 -2.737064 2.032947
C 253.324302 -1.914434 1.478993
C 252.602678 -0.991016 0.637937
N 251.281586 -1.302235 0.720825
N 248.291015 -1.327332 0.854869
C 249.467222 4.256022 -2.758617
C 249.719579 5.440918 -2.057194
C 249.695015 6.670165 -2.718648
C 249.418958 6.720987 -4.085774
C 249.167196 5.543989 -4.792147
C 249.192180 4.314937 -4.130443
H 254.344753 0.031277 0.045042
H 254.205398 1.933245 -2.018288
H 252.252433 3.489688 -3.087456
H 250.484570 0.706813 -0.463669
H 246.859142 3.903595 -2.217966
H 245.114318 2.376513 -1.134804
H 245.394727 -2.812362 0.564928
H 247.356922 -4.374283 1.587259
H 250.675134 -5.591885 1.384351
H 250.696130 -7.517112 2.956946
H 250.045879 -7.181977 5.335532
H 249.376671 -4.920352 6.128232
H 249.360396 -3.006366 4.544389
H 252.666334 -3.532116 2.719859
H 254.387805 -1.923780 1.634178
H 248.974312 -0.592352 0.691605
H 249.931899 5.389234 -0.991487
H 249.890261 7.581204 -2.162186
H 249.398299 7.676824 -4.599457
H 248.949396 5.575718 -5.854818
H 248.994234 3.390893 -4.669357
C 135.743618 0.017227 -0.007383
C 134.491347 -0.001954 -0.011732
C 137.057286 0.016461 -0.005451
C 138.560419 -0.001954 -0.011732
C 148.943553 0.017227 -0.007383
C 147.691283 -0.001954 -0.011732
C 150.257222 0.016461 -0.005451
C 151.760355 -0.001954 -0.011732
C 162.143489 0.017227 -0.007383
C 160.891219 -0.001954 -0.011732
C 163.457157 0.016461 -0.005451
C 164.960291 -0.001954 -0.011732
C 175.343425 0.017227 -0.007383
C 174.091154 -0.001954 -0.011732
C 176.657093 0.016461 -0.005451
C 178.160227 -0.001954 -0.011732
C 188.543361 0.017227 -0.007383
C 187.291090 -0.001954 -0.011732
C 189.857029 0.016461 -0.005451
C 191.360163 -0.001954 -0.011732
C 201.743297 0.017227 -0.007383
C 200.491026 -0.001954 -0.011732
C 203.056965 0.016461 -0.005451
C 204.560098 -0.001954 -0.011732
C 214.943232 0.017227 -0.007383
C 213.690962 -0.001954 -0.011732
C 216.256900 0.016461 -0.005451
C 217.760034 -0.001954 -0.011732
C 228.143168 0.017227 -0.007383
C 226.890898 -0.001954 -0.011732
C 229.456836 0.016461 -0.005451
C 230.959970 -0.001954 -0.011732
C 241.343104 0.017227 -0.007383
C 240.090833 -0.001954 -0.011732
C 242.656772 0.016461 -0.005451
C 244.159906 -0.001954 -0.011732
C 139.505862 -0.000987 0.003464
C 140.299514 1.108836 0.809424
C 139.792788 1.933578 1.793317
C 140.829687 2.822277 2.176557
C 141.939128 2.507475 1.420313
N 141.628177 1.416700 0.647513
C 143.328754 3.267588 1.428957
C 144.463562 2.613746 1.065304
C 145.750493 3.275062 0.999366
C 146.658455 2.386775 0.609687
N 144.671594 1.315092 0.690376
C 145.996102 1.113839 0.407199
C 146.659900 -0.000987 0.003464
C 145.866264 -1.356910 -0.203415
C 146.373030 -2.635121 -0.083454
C 145.336128 -3.536618 -0.435533
C 144.226646 -2.781141 -0.752021
C 142.836994 -3.327864 -1.280093
C 142.846120 -4.606083 -2.029922
C 143.324182 -4.646337 -3.344806
C 143.349186 -5.851329 -4.049826
C 142.898398 -7.024251 -3.442799
C 142.423456 -6.993747 -2.131116
C 142.399398 -5.788699 -1.426520
C 141.702196 -2.607164 -1.079180
C 140.415258 -3.031200 -1.590918
C 139.507300 -2.125467 -1.243716
C 140.169661 -1.077722 -0.492998
N 141.494172 -1.419903 -0.433055
N 144.537581 -1.462093 -0.534904
C 143.319508 4.703857 1.793960
C 142.841245 5.656572 0.886940
C 142.815925 7.009242 1.232378
C 143.266602 7.417015 2.488583
C 143.741775 6.473494 3.400168
C 143.766151 5.121079 3.054385
H 138.784356 1.915386 2.177699
H 140.769082 3.615917 2.906026
H 142.289281 0.894090 0.080180
H 145.945131 4.310140 1.216474
H 147.702897 2.597568 0.469974
H 147.381490 -2.892367 0.202638
H 145.396759 -4.613864 -0.474619
H 143.674496 -3.727113 -3.809321
H 143.720929 -5.866942 -5.069351
H 142.917180 -7.960425 -3.991548
H 142.070474 -7.901444 -1.652422
H 142.029897 -5.752685 -0.403861
H 140.220615 -3.920036 -2.164063
H 138.462858 -2.177191 -1.491256
H 143.876456 -0.691601 -0.571000
H 142.490978 5.329112 -0.089562
H 142.443997 7.736843 0.518147
H 143.247539 8.468626 2.756260
H 144.094654 6.782794 4.378672
H 144.135787 4.376758 3.756535
C 152.705798 -0.000987 0.003464
C 153.499450 1.108836 0.809424
C 152.992724 1.933578 1.793317
C 154.029623 2.822277 2.176557
C 155.139064 2.507475 1.420313
N 154.828113 1.416700 0.647513
C 156.528690 3.267588 1.428957
C 157.663498 2.613746 1.065304
C 158.950429 3.275062 0.999366
C 159.858391 2.386775 0.609687
N 157.871529 1.315092 0.690376
C 159.196037 1.113839 0.407199
C 159.859836 -0.000987 0.003464
C 159.066199 -1.356910 -0.203415
C 159.572966 -2.635121 -0.083454
C 158.536064 -3.536618 -0.435533
C 157.426582 -2.781141 -0.752021
C 156.036930 -3.327864 -1.280093
C 156.046056 -4.606083 -2.029922
C 156.524117 -4.646337 -3.344806
C 156.549122 -5.851329 -4.049826
C 156.098334 -7.024251 -3.442799
C 155.623391 -6.993747 -2.131116
C 155.599334 -5.788699 -1.426520
C 154.902131 -2.607164 -1.079180
C 153.615194 -3.031200 -1.590918
C 152.707236 -2.125467 -1.243716
C 153.369596 -1.077722 -0.492998
N 154.694108 -1.419903 -0.433055
N 157.737517 -1.462093 -0.534904
C 156.519444 4.703857 1.793960
C 156.041181 5.656572 0.886940
C 156.015861 7.009242 1.232378
C 156.466538 7.417015 2.488583
C 156.941711 6.473494 3.400168
C 156.966087 5.121079 3.054385
H 151.984292 1.915386 2.177699
H 153.969018 3.615917 2.906026
H 155.489217 0.894090 0.080180
H 159.145067 4.310140 1.216474
H 160.902833 2.597568 0.469974
H 160.581426 -2.892367 0.202638
H 158.596695 -4.613864 -0.474619
H 156.874432 -3.727113 -3.809321
H 156.920865 -5.866942 -5.069351
H 156.117115 -7.960425 -3.991548
H 155.270410 -7.901444 -1.652422
H 155.229833 -5.752685 -0.403861
H 153.420551 -3.920036 -2.164063
H 151.662793 -2.177191 -1.491256
H 157.076392 -0.691601 -0.571000
H 155.690913 5.329112 -0.089562
H 155.643933 7.736843 0.518147
H 156.447475 8.468626 2.756260
H 157.294589 6.782794 4.378672
H 157.335723 4.376758 3.756535
C 165.905734 -0.000987 0.003464
C 166.699386 1.108836 0.809424
C 166.192660 1.933578 1.793317
C 167.229559 2.822277 2.176557
C 168.339000 2.507475 1.420313
N 168.028048 1.416700 0.647513
C 169.728626 3.267588 1.428957
C 170.863434 2.613746 1.065304
C 172.150365 3.275062 0.999366
C 173.058327 2.386775 0.609687
N 171.071465 1.315092 0.690376
C 172.395973 1.113839 0.407199
C 173.059771 -0.000987 0.003464
C 172.266135 -1.356910 -0.203415
C 172.772902 -2.635121 -0.083454
C 171.736000 -3.536618 -0.435533
C 170.626518 -2.781141 -0.752021
C 169.236865 -3.327864 -1.280093
C 169.245991 -4.606083 -2.029922
C 169.724053 -4.646337 -3.344806
C 169.749058 -5.851329 -4.049826
C 169.298269 -7.024251 -3.442799
C 168.823327 -6.993747 -2.131116
C 168.799270 -5.788699 -1.426520
C 168.102067 -2.607164 -1.079180
C 166.815130 -3.031200 -1.590918
C 165.907172 -2.125467 -1.243716
C 166.569532 -1.077722 -0.492998
N 167.894044 -1.419903 -0.433055
N 170.937453 -1.462093 -0.534904
C 169.719380 4.703857 1.793960
C 169.241117 5.656572 0.886940
C 169.215797 7.009242 1.232378
C 169.666474 7.417015 2.488583
C 170.141647 6.473494 3.400168
C 170.166023 5.121079 3.054385
H 165.184228 1.915386 2.177699
H 167.168954 3.615917 2.906026
H 168.689152 0.894090 0.080180
H 172.345002 4.310140 1.216474
H 174.102769 2.597568 0.469974
H 173.781362 -2.892367 0.202638
H 171.796631 -4.613864 -0.474619
H 170.074368 -3.727113 -3.809321
H 170.120800 -5.866942 -5.069351
H 169.317051 -7.960425 -3.991548
H 168.470346 -7.901444 -1.652422
H 168.429768 -5.752685 -0.403861
H 166.620487 -3.920036 -2.164063
H 164.862729 -2.177191 -1.491256
H 170.276327 -0.691601 -0.571000
H 168.890849 5.329112 -0.089562
H 168.843869 7.736843 0.518147
H 169.647411 8.468626 2.756260
H 170.494525 6.782794 4.378672
H 170.535658 4.376758 3.756535
C 179.105670 -0.000987 0.003464
C 179.899321 1.108836 0.809424
C 179.392595 1.933578 1.793317
C 180.429494 2.822277 2.176557
C 181.538936 2.507475 1.420313
N 181.227984 1.416700 0.647513
C 182.928562 3.267588 1.428957
C 184.063370 2.613746 1.065304
C 185.350301 3.275062 0.999366
C 186.258263 2.386775 0.609687
N 184.271401 1.315092 0.690376
C 185.595909 1.113839 0.407199
C 186.259707 -0.000987 0.003464
C 185.466071 -1.356910 -0.203415
C 185.972838 -2.635121 -0.083454
C 184.935936 -3.536618 -0.435533
C 183.826453 -2.781141 -0.752021
C 182.436801 -3.327864 -1.280093
C 182.445927 -4.606083 -2.029922
C 182.923989 -4.646337 -3.344806
C 182.948994 -5.851329 -4.049826
C 182.498205 -7.024251 -3.442799
C 182.023263 -6.993747 -2.131116
C 181.999206 -5.788699 -1.426520
C 181.302003 -2.607164 -1.079180
C 180.015066 -3.031200 -1.590918
C 179.107107 -2.125467 -1.243716
C 179.769468 -1.077722 -0.492998
N 181.093980 -1.419903 -0.433055
N 184.137389 -1.462093 -0.534904
C 182.919316 4.703857 1.793960
C 182.441052 5.656572 0.886940
C 182.415733 7.009242 1.232378
C 182.866410 7.417015 2.488583
C 183.341582 6.473494 3.400168
C 183.365959 5.121079 3.054385
H 178.384164 1.915386 2.177699
H 180.368889 3.615917 2.906026
H 181.889088 0.894090 0.080180
H 185.544938 4.310140 1.216474
H 187.302705 2.597568 0.469974
H 186.981298 -2.892367 0.202638
H 184.996567 -4.613864 -0.474619
H 183.274304 -3.727113 -3.809321
H 183.320736 -5.866942 -5.069351
H 182.516987 -7.960425 -3.991548
H 181.670281 -7.901444 -1.652422
H 181.629704 -5.752685 -0.403861
H 179.820422 -3.920036 -2.164063
H 178.062665 -2.177191 -1.491256
H 183.476263 -0.691601 -0.571000
H 182.090785 5.329112 -0.089562
H 182.043805 7.736843 0.518147
H 182.847346 8.468626 2.756260
H 183.694461 6.782794 4.378672
H 183.735594 4.376758 3.756535
C 192.305605 -0.000987 0.003464
C 193.099257 1.108836 0.809424
C 192.592531 1.933578 1.793317
C 193.629430 2.822277 2.176557
C 194.738872 2.507475 1.420313
N 194.427920 1.416700 0.647513
C 196.128497 3.267588 1.428957
C 197.263306 2.613746 1.065304
C 198.550237 3.275062 0.999366
C 199.458198 2.386775 0.609687
N 197.471337 1.315092 0.690376
C 198.795845 1.113839 0.407199
C 199.459643 -0.000987 0.003464
C 198.666007 -1.356910 -0.203415
C 199.172773 -2.635121 -0.083454
C 198.135872 -3.536618 -0.435533
C 197.026389 -2.781141 -0.752021
C 195.636737 -3.327864 -1.280093
C 195.645863 -4.606083 -2.029922
C 196.123925 -4.646337 -3.344806
C 196.148930 -5.851329 -4.049826
C 195.698141 -7.024251 -3.442799
C 195.223199 -6.993747 -2.131116
C 195.199142 -5.788699 -1.426520
C 194.501939 -2.607164 -1.079180
C 193.215001 -3.031200 -1.590918
C 192.307043 -2.125467 -1.243716
C 192.969404 -1.077722 -0.492998
N 194.293916 -1.419903 -0.433055
N 197.337324 -1.462093 -0.534904
C 196.119251 4.703857 1.793960
C 195.640988 5.656572 0.886940
C 195.615669 7.009242 1.232378
C 196.066346 7.417015 2.488583
C 196.541518 6.473494 3.400168
C 196.565895 5.121079 3.054385
H 191.584100 1.915386 2.177699
H 193.568825 3.615917 2.906026
H 195.089024 0.894090 0.080180
H 198.744874 4.310140 1.216474
H 200.502640 2.597568 0.469974
H 200.181234 -2.892367 0.202638
H 198.196503 -4.613864 -0.474619
H 196.474239 -3.727113 -3.809321
H 196.520672 -5.866942 -5.069351
H 195.716923 -7.960425 -3.991548
H 194.870217 -7.901444 -1.652422
H 194.829640 -5.752685 -0.403861
H 193.020358 -3.920036 -2.164063
H 191.262601 -2.177191 -1.491256
H 196.676199 -0.691601 -0.571000
H 195.290721 5.329112 -0.089562
H 195.243740 7.736843 0.518147
H 196.047282 8.468626 2.756260
H 196.894397 6.782794 4.378672
H 196.935530 4.376758 3.756535
C 205.505541 -0.000987 0.003464
C 206.299193 1.108836 0.809424
C 205.792467 1.933578 1.793317
C 206.829366 2.822277 2.176557
C 207.938807 2.507475 1.420313
N 207.627856 1.416700 0.647513
C 209.328433 3.267588 1.428957
C 210.463241 2.613746 1.065304
C 211.750172 3.275062 0.999366
C 212.658134 2.386775 0.609687
N 210.671273 1.315092 0.690376
C 211.995781 1.113839 0.407199
C 212.659579 -0.000987 0.003464
C 211.865943 -1.356910 -0.203415
C 212.372709 -2.635121 -0.083454
C 211.335807 -3.536618 -0.435533
C 210.226325 -2.781141 -0.752021
C 208.836673 -3.327864 -1.280093
C 208.845799 -4.606083 -2.029922
C 209.323861 -4.646337 -3.344806
C 209.348865 -5.851329 -4.049826
C 208.898077 -7.024251 -3.442799
C 208.423135 -6.993747 -2.131116
C 208.399077 -5.788699 -1.426520
C 207.701875 -2.607164 -1.079180
C 206.414937 -3.031200 -1.590918
C 205.506979 -2.125467 -1.243716
C 206.169339 -1.077722 -0.492998
N 207.493851 -1.419903 -0.433055
N 210.537260 -1.462093 -0.534904
C 209.319187 4.703857 1.793960
C 208.840924 5.656572 0.886940
C 208.815604 7.009242 1.232378
C 209.266281 7.417015 2.488583
C 209.741454 6.473494 3.400168
C 209.765830 5.121079 3.054385
H 204.784035 1.915386 2.177699
H 206.768761 3.615917 2.906026
H 208.288960 0.894090 0.080180
H 211.944810 4.310140 1.216474
H 213.702576 2.597568 0.469974
H 213.381169 -2.892367 0.202638
H 211.396438 -4.613864 -0.474619
H 209.674175 -3.727113 -3.809321
H 209.720608 -5.866942 -5.069351
H 208.916859 -7.960425 -3.991548
H 208.070153 -7.901444 -1.652422
H 208.029576 -5.752685 -0.403861
H 206.220294 -3.920036 -2.164063
H 204.462537 -2.177191 -1.491256
H 209.876135 -0.691601 -0.571000
H 208.490657 5.329112 -0.089562
H 208.443676 7.736843 0.518147
H 209.247218 8.468626 2.756260
H 210.094333 6.782794 4.378672
H 210.135466 4.376758 3.756535
C 218.705477 -0.000987 0.003464
C 219.499129 1.108836 0.809424
C 218.992403 1.933578 1.793317
C 220.029302 2.822277 2.176557
C 221.138743 2.507475 1.420313
N 220.827792 1.416700 0.647513
C 222.528369 3.267588 1.428957
C 223.663177 2.613746 1.065304
C 224.950108 3.275062 0.999366
C 225.858070 2.386775 0.609687
N 223.871208 1.315092 0.690376
C 225.195716 1.113839 0.407199
C 225.859515 -0.000987 0.003464
C 225.065878 -1.356910 -0.203415
C 225.572645 -2.635121 -0.083454
C 224.535743 -3.536618 -0.435533
C 223.426261 -2.781141 -0.752021
C 222.036609 -3.327864 -1.280093
C 222.045735 -4.606083 -2.029922
C 222.523796 -4.646337 -3.344806
C 222.548801 -5.851329 -4.049826
C 222.098013 -7.024251 -3.442799
C 221.623070 -6.993747 -2.131116
C 221.599013 -5.788699 -1.426520
C 220.901810 -2.607164 -1.079180
C 219.614873 -3.031200 -1.590918
C 218.706915 -2.125467 -1.243716
C 219.369275 -1.077722 -0.492998
N 220.693787 -1.419903 -0.433055
N 223.737196 -1.462093 -0.534904
C 222.519123 4.703857 1.793960
C 222.040860 5.656572 0.886940
C 222.015540 7.009242 1.232378
C 222.466217 7.417015 2.488583
C 222.941390 6.473494 3.400168
C 222.965766 5.121079 3.054385
H 217.983971 1.915386 2.177699
H 219.968697 3.615917 2.906026
H 221.488896 0.894090 0.080180
H 225.144746 4.310140 1.216474
H 226.902512 2.597568 0.469974
H 226.581105 -2.892367 0.202638
H 224.596374 -4.613864 -0.474619
H 222.874111 -3.727113 -3.809321
H 222.920544 -5.866942 -5.069351
H 222.116794 -7.960425 -3.991548
H 221.270089 -7.901444 -1.652422
H 221.229512 -5.752685 -0.403861
H 219.420230 -3.920036 -2.164063
H 217.662472 -2.177191 -1.491256
H 223.076071 -0.691601 -0.571000
H 221.690592 5.329112 -0.089562
H 221.643612 7.736843 0.518147
H 222.447154 8.468626 2.756260
H 223.294268 6.782794 4.378672
H 223.335402 4.376758 3.756535
C 231.905413 -0.000987 0.003464
C 232.699065 1.108836 0.809424
C 232.192339 1.933578 1.793317
C 233.229237 2.822277 2.176557
C 234.338679 2.507475 1.420313
N 234.027727 1.416700 0.647513
C 235.728305 3.267588 1.428957
C 236.863113 2.613746 1.065304
C 238.150044 3.275062 0.999366
C 239.058006 2.386775 0.609687
N 237.071144 1.315092 0.690376
C 238.395652 1.113839 0.407199
C 239.059450 -0.000987 0.003464
C 238.265814 -1.356910 -0.203415
C 238.772581 -2.635121 -0.083454
C 237.735679 -3.536618 -0.435533
C 236.626197 -2.781141 -0.752021
C 235.236544 -3.327864 -1.280093
C 235.245670 -4.606083 -2.029922
C 235.723732 -4.646337 -3.344806
C 235.748737 -5.851329 -4.049826
C 235.297948 -7.024251 -3.442799
C 234.823006 -6.993747 -2.131116
C 234.798949 -5.788699 -1.426520
C 234.101746 -2.607164 -1.079180
C 232.814809 -3.031200 -1.590918
C 231.906851 -2.125467 -1.243716
C 232.569211 -1.077722 -0.492998
N 233.893723 -1.419903 -0.433055
N 236.937132 -1.462093 -0.534904
C 235.719059 4.703857 1.793960
C 235.240796 5.656572 0.886940
C 235.215476 7.009242 1.232378
C 235.666153 7.417015 2.488583
C 236.141326 6.473494 3.400168
C 236.165702 5.121079 3.054385
H 231.183907 1.915386 2.177699
H 233.168633 3.615917 2.906026
H 234.688831 0.894090 0.080180
H 238.344681 4.310140 1.216474
H 240.102448 2.597568 0.469974
H 239.781041 -2.892367 0.202638
H 237.796310 -4.613864 -0.474619
H 236.074047 -3.727113 -3.809321
H 236.120479 -5.866942 -5.069351
H 235.316730 -7.960425 -3.991548
H 234.470025 -7.901444 -1.652422
H 234.429447 -5.752685 -0.403861
H 232.620166 -3.920036 -2.164063
H 230.862408 -2.177191 -1.491256
H 236.276006 -0.691601 -0.571000
H 234.890528 5.329112 -0.089562
H 234.843548 7.736843 0.518147
H 235.647090 8.468626 2.756260
H 236.494204 6.782794 4.378672
H 236.535337 4.376758 3.756535
