 xtb: 6.5.1 (b24c23e)
          07292221543D

111134  0     0  0            999 V2000
   19.0485    0.3366   -0.5148 Co  0  0  0  0  0  0  0  0  0  0  0  0
   15.7856   -0.1616    0.1252 C   0  0  0  0  0  0  0  0  0  0  0  0
   16.4018   -0.9801   -0.8003 C   0  0  0  0  0  0  0  0  0  0  0  0
   15.7247   -1.9896   -1.5600 C   0  0  0  0  0  0  0  0  0  0  0  0
   16.6068   -2.4391   -2.4847 C   0  0  0  0  0  0  0  0  0  0  0  0
   17.8405   -1.7495   -2.2474 C   0  0  0  0  0  0  0  0  0  0  0  0
   17.6988   -0.8520   -1.2236 N   0  0  0  0  0  0  0  0  0  0  0  0
   19.0332   -2.0555   -2.8749 C   0  0  0  0  0  0  0  0  0  0  0  0
   20.2521   -1.5939   -2.4257 C   0  0  0  0  0  0  0  0  0  0  0  0
   21.5152   -2.1267   -2.8383 C   0  0  0  0  0  0  0  0  0  0  0  0
   22.4519   -1.5789   -2.0255 C   0  0  0  0  0  0  0  0  0  0  0  0
   20.4275   -0.6798   -1.4136 N   0  0  0  0  0  0  0  0  0  0  0  0
   21.7674   -0.6633   -1.1652 C   0  0  0  0  0  0  0  0  0  0  0  0
   22.4171    0.2247   -0.2977 C   0  0  0  0  0  0  0  0  0  0  0  0
   21.7441    1.3346    0.2299 C   0  0  0  0  0  0  0  0  0  0  0  0
   22.4032    2.4661    0.8057 C   0  0  0  0  0  0  0  0  0  0  0  0
   21.4457    3.3933    1.0529 C   0  0  0  0  0  0  0  0  0  0  0  0
   20.1956    2.7984    0.6883 C   0  0  0  0  0  0  0  0  0  0  0  0
   20.3997    1.5451    0.1600 N   0  0  0  0  0  0  0  0  0  0  0  0
   18.9646    3.3442    0.9827 C   0  0  0  0  0  0  0  0  0  0  0  0
   17.7878    2.6245    0.8974 C   0  0  0  0  0  0  0  0  0  0  0  0
   16.5444    3.0436    1.4736 C   0  0  0  0  0  0  0  0  0  0  0  0
   15.6822    2.0079    1.3360 C   0  0  0  0  0  0  0  0  0  0  0  0
   16.3810    0.9816    0.6198 C   0  0  0  0  0  0  0  0  0  0  0  0
   17.6728    1.3662    0.3713 N   0  0  0  0  0  0  0  0  0  0  0  0
   14.7526   -0.3606    0.3852 H   0  0  0  0  0  0  0  0  0  0  0  0
   14.6968   -2.2797   -1.4097 H   0  0  0  0  0  0  0  0  0  0  0  0
   16.4639   -3.1903   -3.2454 H   0  0  0  0  0  0  0  0  0  0  0  0
   19.0211   -2.7822   -3.6789 H   0  0  0  0  0  0  0  0  0  0  0  0
   21.6460   -2.8507   -3.6268 H   0  0  0  0  0  0  0  0  0  0  0  0
   23.5180   -1.7400   -2.0235 H   0  0  0  0  0  0  0  0  0  0  0  0
   23.4677    2.5417    0.9584 H   0  0  0  0  0  0  0  0  0  0  0  0
   21.5544    4.3798    1.4748 H   0  0  0  0  0  0  0  0  0  0  0  0
   18.9306    4.3395    1.4102 H   0  0  0  0  0  0  0  0  0  0  0  0
   16.3819    3.9999    1.9452 H   0  0  0  0  0  0  0  0  0  0  0  0
   14.6542    1.9377    1.6549 H   0  0  0  0  0  0  0  0  0  0  0  0
   40.2216    0.2998   -0.5040 Co  0  0  0  0  0  0  0  0  0  0  0  0
   43.4552    0.1553    0.4001 C   0  0  0  0  0  0  0  0  0  0  0  0
   42.7794    1.3457    0.5805 C   0  0  0  0  0  0  0  0  0  0  0  0
   43.3847    2.5499    1.0684 C   0  0  0  0  0  0  0  0  0  0  0  0
   42.4715    3.5378    0.9087 C   0  0  0  0  0  0  0  0  0  0  0  0
   41.2874    2.9243    0.3842 C   0  0  0  0  0  0  0  0  0  0  0  0
   41.4910    1.5863    0.1802 N   0  0  0  0  0  0  0  0  0  0  0  0
   40.0766    3.5740    0.2351 C   0  0  0  0  0  0  0  0  0  0  0  0
   38.8920    2.9018    0.0228 C   0  0  0  0  0  0  0  0  0  0  0  0
   37.5955    3.4887    0.1788 C   0  0  0  0  0  0  0  0  0  0  0  0
   36.7000    2.4724    0.1225 C   0  0  0  0  0  0  0  0  0  0  0  0
   38.7794    1.5488   -0.1971 N   0  0  0  0  0  0  0  0  0  0  0  0
   37.4456    1.2789   -0.1356 C   0  0  0  0  0  0  0  0  0  0  0  0
   36.8575    0.0391   -0.4211 C   0  0  0  0  0  0  0  0  0  0  0  0
   37.5965   -0.9822   -1.0316 C   0  0  0  0  0  0  0  0  0  0  0  0
   37.0094   -2.1139   -1.6802 C   0  0  0  0  0  0  0  0  0  0  0  0
   38.0178   -2.7790   -2.2957 C   0  0  0  0  0  0  0  0  0  0  0  0
   39.2273   -2.0889   -1.9630 C   0  0  0  0  0  0  0  0  0  0  0  0
   38.9483   -0.9758   -1.2057 N   0  0  0  0  0  0  0  0  0  0  0  0
   40.4916   -2.5678   -2.2334 C   0  0  0  0  0  0  0  0  0  0  0  0
   41.6286   -2.0540   -1.6390 C   0  0  0  0  0  0  0  0  0  0  0  0
   42.9053   -2.7051   -1.6469 C   0  0  0  0  0  0  0  0  0  0  0  0
   43.7059   -2.0041   -0.8086 C   0  0  0  0  0  0  0  0  0  0  0  0
   42.9369   -0.8890   -0.3397 C   0  0  0  0  0  0  0  0  0  0  0  0
   41.6648   -0.9384   -0.8466 N   0  0  0  0  0  0  0  0  0  0  0  0
   44.4772    0.0820    0.7531 H   0  0  0  0  0  0  0  0  0  0  0  0
   44.3916    2.6160    1.4494 H   0  0  0  0  0  0  0  0  0  0  0  0
   42.5616    4.5859    1.1471 H   0  0  0  0  0  0  0  0  0  0  0  0
   40.0391    4.6425    0.4122 H   0  0  0  0  0  0  0  0  0  0  0  0
   37.4148    4.5389    0.3445 H   0  0  0  0  0  0  0  0  0  0  0  0
   35.6260    2.5174    0.2056 H   0  0  0  0  0  0  0  0  0  0  0  0
   35.9542   -2.3355   -1.6873 H   0  0  0  0  0  0  0  0  0  0  0  0
   37.9690   -3.6748   -2.8940 H   0  0  0  0  0  0  0  0  0  0  0  0
   40.5863   -3.4592   -2.8426 H   0  0  0  0  0  0  0  0  0  0  0  0
   43.1303   -3.6008   -2.2041 H   0  0  0  0  0  0  0  0  0  0  0  0
   44.7345   -2.1907   -0.5432 H   0  0  0  0  0  0  0  0  0  0  0  0
   23.7835    0.0567   -0.0350 C   0  0  0  0  0  0  0  0  0  0  0  0
   24.9563   -0.1269    0.2418 C   0  0  0  0  0  0  0  0  0  0  0  0
   34.3144   -0.2999    0.1064 C   0  0  0  0  0  0  0  0  0  0  0  0
   35.4890   -0.1386   -0.1763 C   0  0  0  0  0  0  0  0  0  0  0  0
   29.6373   -0.6510    0.9415 Co  0  0  0  0  0  0  0  0  0  0  0  0
   26.3078   -0.3360    0.5471 C   0  0  0  0  0  0  0  0  0  0  0  0
   26.9753    0.5727    1.3810 C   0  0  0  0  0  0  0  0  0  0  0  0
   26.3173    1.5968    2.1314 C   0  0  0  0  0  0  0  0  0  0  0  0
   27.2512    2.1464    2.9471 C   0  0  0  0  0  0  0  0  0  0  0  0
   28.4901    1.4986    2.6441 C   0  0  0  0  0  0  0  0  0  0  0  0
   28.2987    0.5174    1.7016 N   0  0  0  0  0  0  0  0  0  0  0  0
   29.7195    1.9170    3.1109 C   0  0  0  0  0  0  0  0  0  0  0  0
   30.9129    1.4846    2.5686 C   0  0  0  0  0  0  0  0  0  0  0  0
   32.1761    2.1171    2.7926 C   0  0  0  0  0  0  0  0  0  0  0  0
   33.0586    1.5315    1.9452 C   0  0  0  0  0  0  0  0  0  0  0  0
   31.0373    0.4844    1.6356 N   0  0  0  0  0  0  0  0  0  0  0  0
   32.3457    0.5023    1.2534 C   0  0  0  0  0  0  0  0  0  0  0  0
   32.9620   -0.4582    0.4381 C   0  0  0  0  0  0  0  0  0  0  0  0
   32.2964   -1.6414    0.0885 C   0  0  0  0  0  0  0  0  0  0  0  0
   32.9543   -2.8051   -0.4191 C   0  0  0  0  0  0  0  0  0  0  0  0
   32.0251   -3.7923   -0.4634 C   0  0  0  0  0  0  0  0  0  0  0  0
   30.7884   -3.2084   -0.0435 C   0  0  0  0  0  0  0  0  0  0  0  0
   30.9765   -1.8957    0.3151 N   0  0  0  0  0  0  0  0  0  0  0  0
   29.5616   -3.8329   -0.1434 C   0  0  0  0  0  0  0  0  0  0  0  0
   28.3647   -3.1539   -0.0346 C   0  0  0  0  0  0  0  0  0  0  0  0
   27.0996   -3.6787   -0.4474 C   0  0  0  0  0  0  0  0  0  0  0  0
   26.2133   -2.6544   -0.3770 C   0  0  0  0  0  0  0  0  0  0  0  0
   26.9256   -1.5273    0.1405 C   0  0  0  0  0  0  0  0  0  0  0  0
   28.2373   -1.8392    0.3417 N   0  0  0  0  0  0  0  0  0  0  0  0
   25.2673    1.8297    2.0600 H   0  0  0  0  0  0  0  0  0  0  0  0
   27.1350    2.9409    3.6669 H   0  0  0  0  0  0  0  0  0  0  0  0
   29.7471    2.7100    3.8494 H   0  0  0  0  0  0  0  0  0  0  0  0
   32.3425    2.9247    3.4876 H   0  0  0  0  0  0  0  0  0  0  0  0
   34.1082    1.7420    1.8182 H   0  0  0  0  0  0  0  0  0  0  0  0
   34.0009   -2.8551   -0.6725 H   0  0  0  0  0  0  0  0  0  0  0  0
   32.1425   -4.8158   -0.7818 H   0  0  0  0  0  0  0  0  0  0  0  0
   29.5371   -4.8743   -0.4431 H   0  0  0  0  0  0  0  0  0  0  0  0
   26.9347   -4.6921   -0.7771 H   0  0  0  0  0  0  0  0  0  0  0  0
   25.1615   -2.6583   -0.6138 H   0  0  0  0  0  0  0  0  0  0  0  0
  2  3  4  0  0  0  0
  3  4  1  0  0  0  0
  4  5  2  0  0  0  0
  5  6  1  0  0  0  0
  1  7  1  0  0  0  0
  3  7  4  0  0  0  0
  6  7  4  0  0  0  0
  6  8  4  0  0  0  0
  8  9  4  0  0  0  0
  9 10  1  0  0  0  0
 10 11  2  0  0  0  0
  1 12  1  0  0  0  0
  9 12  4  0  0  0  0
 11 13  4  0  0  0  0
 12 13  4  0  0  0  0
 13 14  4  0  0  0  0
 14 15  4  0  0  0  0
 15 16  4  0  0  0  0
 16 17  2  0  0  0  0
 17 18  1  0  0  0  0
  1 19  1  0  0  0  0
 15 19  4  0  0  0  0
 18 19  4  0  0  0  0
 18 20  4  0  0  0  0
 20 21  4  0  0  0  0
 21 22  1  0  0  0  0
 22 23  2  0  0  0  0
  2 24  4  0  0  0  0
 23 24  1  0  0  0  0
  1 25  1  0  0  0  0
 21 25  4  0  0  0  0
 24 25  4  0  0  0  0
  2 26  1  0  0  0  0
  4 27  1  0  0  0  0
  5 28  1  0  0  0  0
  8 29  1  0  0  0  0
 10 30  1  0  0  0  0
 11 31  1  0  0  0  0
 16 32  1  0  0  0  0
 17 33  1  0  0  0  0
 20 34  1  0  0  0  0
 22 35  1  0  0  0  0
 23 36  1  0  0  0  0
 38 39  4  0  0  0  0
 39 40  1  0  0  0  0
 40 41  2  0  0  0  0
 41 42  1  0  0  0  0
 37 43  1  0  0  0  0
 39 43  4  0  0  0  0
 42 43  4  0  0  0  0
 42 44  4  0  0  0  0
 44 45  4  0  0  0  0
 45 46  1  0  0  0  0
 46 47  2  0  0  0  0
 37 48  1  0  0  0  0
 45 48  4  0  0  0  0
 47 49  4  0  0  0  0
 48 49  4  0  0  0  0
 49 50  4  0  0  0  0
 50 51  4  0  0  0  0
 51 52  4  0  0  0  0
 52 53  2  0  0  0  0
 53 54  1  0  0  0  0
 37 55  1  0  0  0  0
 51 55  4  0  0  0  0
 54 55  4  0  0  0  0
 54 56  4  0  0  0  0
 56 57  4  0  0  0  0
 57 58  1  0  0  0  0
 58 59  2  0  0  0  0
 38 60  4  0  0  0  0
 59 60  1  0  0  0  0
 37 61  1  0  0  0  0
 57 61  4  0  0  0  0
 60 61  4  0  0  0  0
 38 62  1  0  0  0  0
 40 63  1  0  0  0  0
 41 64  1  0  0  0  0
 44 65  1  0  0  0  0
 46 66  1  0  0  0  0
 47 67  1  0  0  0  0
 52 68  1  0  0  0  0
 53 69  1  0  0  0  0
 56 70  1  0  0  0  0
 58 71  1  0  0  0  0
 59 72  1  0  0  0  0
 14 73  4  0  0  0  0
 73 74  3  0  0  0  0
 50 76  4  0  0  0  0
 75 76  3  0  0  0  0
 74 78  4  0  0  0  0
 78 79  4  0  0  0  0
 79 80  4  0  0  0  0
 80 81  2  0  0  0  0
 81 82  4  0  0  0  0
 77 83  1  0  0  0  0
 79 83  4  0  0  0  0
 82 83  4  0  0  0  0
 82 84  4  0  0  0  0
 84 85  4  0  0  0  0
 85 86  4  0  0  0  0
 86 87  2  0  0  0  0
 77 88  1  0  0  0  0
 85 88  4  0  0  0  0
 87 89  4  0  0  0  0
 88 89  4  0  0  0  0
 75 90  4  0  0  0  0
 89 90  4  0  0  0  0
 90 91  4  0  0  0  0
 91 92  4  0  0  0  0
 92 93  2  0  0  0  0
 93 94  4  0  0  0  0
 77 95  1  0  0  0  0
 91 95  4  0  0  0  0
 94 95  4  0  0  0  0
 94 96  4  0  0  0  0
 96 97  4  0  0  0  0
 97 98  4  0  0  0  0
 98 99  2  0  0  0  0
 78100  4  0  0  0  0
 99100  4  0  0  0  0
 77101  1  0  0  0  0
 97101  4  0  0  0  0
100101  4  0  0  0  0
 80102  1  0  0  0  0
 81103  1  0  0  0  0
 84104  1  0  0  0  0
 86105  1  0  0  0  0
 87106  1  0  0  0  0
 92107  1  0  0  0  0
 93108  1  0  0  0  0
 96109  1  0  0  0  0
 98110  1  0  0  0  0
 99111  1  0  0  0  0
M  END
