 xtb: 6.5.1 (b24c23e)
          07302205003D

232271  0     0  0            999 V2000
   33.2086   -0.0211   -0.0174 Cu  0  0  0  0  0  0  0  0  0  0  0  0
   29.8019   -0.0543   -0.0415 C   0  0  0  0  0  0  0  0  0  0  0  0
   30.4371   -1.2806    0.0820 C   0  0  0  0  0  0  0  0  0  0  0  0
   29.7619   -2.5383    0.2290 C   0  0  0  0  0  0  0  0  0  0  0  0
   30.7206   -3.4902    0.3438 C   0  0  0  0  0  0  0  0  0  0  0  0
   31.9914   -2.8226    0.2593 C   0  0  0  0  0  0  0  0  0  0  0  0
   31.7880   -1.4815    0.1056 N   0  0  0  0  0  0  0  0  0  0  0  0
   33.2358   -3.4488    0.3585 C   0  0  0  0  0  0  0  0  0  0  0  0
   33.2462   -4.9232    0.5204 C   0  0  0  0  0  0  0  0  0  0  0  0
   33.7597   -5.5229    1.6696 C   0  0  0  0  0  0  0  0  0  0  0  0
   33.7418   -6.9046    1.7764 C   0  0  0  0  0  0  0  0  0  0  0  0
   33.2591   -7.6985    0.8260 N   0  0  0  0  0  0  0  0  0  0  0  0
   32.7706   -7.1349   -0.2742 C   0  0  0  0  0  0  0  0  0  0  0  0
   32.7399   -5.7633   -0.4705 C   0  0  0  0  0  0  0  0  0  0  0  0
   34.4691   -2.7963    0.3170 C   0  0  0  0  0  0  0  0  0  0  0  0
   35.7463   -3.4488    0.3782 C   0  0  0  0  0  0  0  0  0  0  0  0
   36.6927   -2.4813    0.2807 C   0  0  0  0  0  0  0  0  0  0  0  0
   34.6579   -1.4470    0.1742 N   0  0  0  0  0  0  0  0  0  0  0  0
   36.0019   -1.2333    0.1516 C   0  0  0  0  0  0  0  0  0  0  0  0
   36.6384    0.0110    0.0002 C   0  0  0  0  0  0  0  0  0  0  0  0
   35.9801    1.2435   -0.1533 C   0  0  0  0  0  0  0  0  0  0  0  0
   36.6482    2.4973   -0.3342 C   0  0  0  0  0  0  0  0  0  0  0  0
   35.6848    3.4471   -0.4398 C   0  0  0  0  0  0  0  0  0  0  0  0
   34.4198    2.7795   -0.3165 C   0  0  0  0  0  0  0  0  0  0  0  0
   34.6326    1.4361   -0.1540 N   0  0  0  0  0  0  0  0  0  0  0  0
   33.1749    3.4083   -0.3789 C   0  0  0  0  0  0  0  0  0  0  0  0
   33.1596    4.8839   -0.5250 C   0  0  0  0  0  0  0  0  0  0  0  0
   32.5910    5.4967   -1.6411 C   0  0  0  0  0  0  0  0  0  0  0  0
   32.5979    6.8798   -1.7299 C   0  0  0  0  0  0  0  0  0  0  0  0
   33.1214    7.6634   -0.7925 N   0  0  0  0  0  0  0  0  0  0  0  0
   33.6647    7.0874    0.2751 C   0  0  0  0  0  0  0  0  0  0  0  0
   33.7096    5.7135    0.4515 C   0  0  0  0  0  0  0  0  0  0  0  0
   31.9413    2.7563   -0.3119 C   0  0  0  0  0  0  0  0  0  0  0  0
   30.6591    3.4066   -0.3338 C   0  0  0  0  0  0  0  0  0  0  0  0
   29.7177    2.4349   -0.2446 C   0  0  0  0  0  0  0  0  0  0  0  0
   30.4152    1.1839   -0.1567 C   0  0  0  0  0  0  0  0  0  0  0  0
   31.7621    1.4082   -0.1930 N   0  0  0  0  0  0  0  0  0  0  0  0
   28.7168   -0.0634   -0.0363 H   0  0  0  0  0  0  0  0  0  0  0  0
   28.6905   -2.6615    0.2477 H   0  0  0  0  0  0  0  0  0  0  0  0
   30.5869   -4.5505    0.4855 H   0  0  0  0  0  0  0  0  0  0  0  0
   34.1533   -4.9147    2.4754 H   0  0  0  0  0  0  0  0  0  0  0  0
   34.1314   -7.3945    2.6640 H   0  0  0  0  0  0  0  0  0  0  0  0
   32.3862   -7.8096   -1.0336 H   0  0  0  0  0  0  0  0  0  0  0  0
   32.3415   -5.3486   -1.3888 H   0  0  0  0  0  0  0  0  0  0  0  0
   35.8955   -4.5124    0.4707 H   0  0  0  0  0  0  0  0  0  0  0  0
   37.7651   -2.5932    0.2878 H   0  0  0  0  0  0  0  0  0  0  0  0
   37.7181    2.6236   -0.3791 H   0  0  0  0  0  0  0  0  0  0  0  0
   35.8147    4.5051   -0.6004 H   0  0  0  0  0  0  0  0  0  0  0  0
   32.1630    4.8978   -2.4361 H   0  0  0  0  0  0  0  0  0  0  0  0
   32.1639    7.3795   -2.5910 H   0  0  0  0  0  0  0  0  0  0  0  0
   34.0823    7.7538    1.0243 H   0  0  0  0  0  0  0  0  0  0  0  0
   34.1519    5.2888    1.3449 H   0  0  0  0  0  0  0  0  0  0  0  0
   30.5060    4.4719   -0.3970 H   0  0  0  0  0  0  0  0  0  0  0  0
   28.6444    2.5417   -0.2308 H   0  0  0  0  0  0  0  0  0  0  0  0
   81.3432    0.0336   -0.0174 Cu  0  0  0  0  0  0  0  0  0  0  0  0
   84.7494    0.0506   -0.0633 C   0  0  0  0  0  0  0  0  0  0  0  0
   84.1161    1.2604   -0.3042 C   0  0  0  0  0  0  0  0  0  0  0  0
   84.7934    2.5040   -0.5364 C   0  0  0  0  0  0  0  0  0  0  0  0
   83.8363    3.4492   -0.7070 C   0  0  0  0  0  0  0  0  0  0  0  0
   82.5645    2.7888   -0.5895 C   0  0  0  0  0  0  0  0  0  0  0  0
   82.7656    1.4620   -0.3389 N   0  0  0  0  0  0  0  0  0  0  0  0
   81.3209    3.4176   -0.6834 C   0  0  0  0  0  0  0  0  0  0  0  0
   81.3115    4.8741   -0.9634 C   0  0  0  0  0  0  0  0  0  0  0  0
   80.7915    5.7846   -0.0444 C   0  0  0  0  0  0  0  0  0  0  0  0
   80.8097    7.1368   -0.3483 C   0  0  0  0  0  0  0  0  0  0  0  0
   81.2988    7.6167   -1.4871 N   0  0  0  0  0  0  0  0  0  0  0  0
   81.7934    6.7552   -2.3701 C   0  0  0  0  0  0  0  0  0  0  0  0
   81.8242    5.3864   -2.1545 C   0  0  0  0  0  0  0  0  0  0  0  0
   80.0867    2.7828   -0.5337 C   0  0  0  0  0  0  0  0  0  0  0  0
   78.8104    3.4240   -0.6775 C   0  0  0  0  0  0  0  0  0  0  0  0
   77.8628    2.4725   -0.4822 C   0  0  0  0  0  0  0  0  0  0  0  0
   79.8962    1.4532   -0.2644 N   0  0  0  0  0  0  0  0  0  0  0  0
   78.5520    1.2439   -0.2246 C   0  0  0  0  0  0  0  0  0  0  0  0
   77.9141    0.0151    0.0192 C   0  0  0  0  0  0  0  0  0  0  0  0
   78.5704   -1.2054    0.2554 C   0  0  0  0  0  0  0  0  0  0  0  0
   77.8997   -2.4521    0.4712 C   0  0  0  0  0  0  0  0  0  0  0  0
   78.8614   -3.3930    0.6482 C   0  0  0  0  0  0  0  0  0  0  0  0
   80.1280   -2.7243    0.5495 C   0  0  0  0  0  0  0  0  0  0  0  0
   79.9176   -1.3936    0.3012 N   0  0  0  0  0  0  0  0  0  0  0  0
   81.3720   -3.3480    0.6612 C   0  0  0  0  0  0  0  0  0  0  0  0
   81.3856   -4.8020    0.9521 C   0  0  0  0  0  0  0  0  0  0  0  0
   81.9383   -5.7144    0.0540 C   0  0  0  0  0  0  0  0  0  0  0  0
   81.9287   -7.0640    0.3692 C   0  0  0  0  0  0  0  0  0  0  0  0
   81.4172   -7.5401    1.4999 N   0  0  0  0  0  0  0  0  0  0  0  0
   80.8897   -6.6772    2.3622 C   0  0  0  0  0  0  0  0  0  0  0  0
   80.8487   -5.3107    2.1342 C   0  0  0  0  0  0  0  0  0  0  0  0
   82.6062   -2.7095    0.5188 C   0  0  0  0  0  0  0  0  0  0  0  0
   83.8879   -3.3413    0.6787 C   0  0  0  0  0  0  0  0  0  0  0  0
   84.8306   -2.3889    0.4719 C   0  0  0  0  0  0  0  0  0  0  0  0
   84.1345   -1.1654    0.1933 C   0  0  0  0  0  0  0  0  0  0  0  0
   82.7872   -1.3867    0.2337 N   0  0  0  0  0  0  0  0  0  0  0  0
   85.8345    0.0584   -0.0654 H   0  0  0  0  0  0  0  0  0  0  0  0
   85.8650    2.6251   -0.5566 H   0  0  0  0  0  0  0  0  0  0  0  0
   83.9720    4.5037   -0.8854 H   0  0  0  0  0  0  0  0  0  0  0  0
   80.3925    5.4398    0.9021 H   0  0  0  0  0  0  0  0  0  0  0  0
   80.4149    7.8654    0.3537 H   0  0  0  0  0  0  0  0  0  0  0  0
   82.1829    7.1773   -3.2919 H   0  0  0  0  0  0  0  0  0  0  0  0
   82.2273    4.7206   -2.9083 H   0  0  0  0  0  0  0  0  0  0  0  0
   78.6626    4.4660   -0.9108 H   0  0  0  0  0  0  0  0  0  0  0  0
   76.7905    2.5820   -0.5130 H   0  0  0  0  0  0  0  0  0  0  0  0
   76.8293   -2.5821    0.4778 H   0  0  0  0  0  0  0  0  0  0  0  0
   78.7290   -4.4493    0.8175 H   0  0  0  0  0  0  0  0  0  0  0  0
   82.3559   -5.3731   -0.8858 H   0  0  0  0  0  0  0  0  0  0  0  0
   82.3501   -7.7936   -0.3162 H   0  0  0  0  0  0  0  0  0  0  0  0
   80.4816   -7.0962    3.2774 H   0  0  0  0  0  0  0  0  0  0  0  0
   80.4194   -4.6435    2.8722 H   0  0  0  0  0  0  0  0  0  0  0  0
   84.0397   -4.3787    0.9301 H   0  0  0  0  0  0  0  0  0  0  0  0
   85.9038   -2.4901    0.5088 H   0  0  0  0  0  0  0  0  0  0  0  0
   41.8416    0.0351   -0.0313 C   0  0  0  0  0  0  0  0  0  0  0  0
   40.6136    0.0338   -0.0220 C   0  0  0  0  0  0  0  0  0  0  0  0
   39.2684    0.0295   -0.0111 C   0  0  0  0  0  0  0  0  0  0  0  0
   38.0450    0.0214   -0.0081 C   0  0  0  0  0  0  0  0  0  0  0  0
   43.1867    0.0319   -0.0392 C   0  0  0  0  0  0  0  0  0  0  0  0
   44.4104    0.0284   -0.0456 C   0  0  0  0  0  0  0  0  0  0  0  0
   57.8916    0.0199   -0.0215 C   0  0  0  0  0  0  0  0  0  0  0  0
   56.6631    0.0203   -0.0217 C   0  0  0  0  0  0  0  0  0  0  0  0
   55.3188    0.0221   -0.0238 C   0  0  0  0  0  0  0  0  0  0  0  0
   54.0947    0.0219   -0.0265 C   0  0  0  0  0  0  0  0  0  0  0  0
   59.2360    0.0171   -0.0209 C   0  0  0  0  0  0  0  0  0  0  0  0
   60.4601    0.0140   -0.0212 C   0  0  0  0  0  0  0  0  0  0  0  0
   73.9393   -0.0045    0.0051 C   0  0  0  0  0  0  0  0  0  0  0  0
   72.7113   -0.0067   -0.0019 C   0  0  0  0  0  0  0  0  0  0  0  0
   71.3666   -0.0077   -0.0089 C   0  0  0  0  0  0  0  0  0  0  0  0
   70.1428   -0.0086   -0.0183 C   0  0  0  0  0  0  0  0  0  0  0  0
   75.2842    0.0008    0.0121 C   0  0  0  0  0  0  0  0  0  0  0  0
   76.5077    0.0053    0.0166 C   0  0  0  0  0  0  0  0  0  0  0  0
   49.2526    0.0182   -0.0437 Cu  0  0  0  0  0  0  0  0  0  0  0  0
   45.8163    0.0231   -0.0482 C   0  0  0  0  0  0  0  0  0  0  0  0
   46.4623   -0.8656    0.8296 C   0  0  0  0  0  0  0  0  0  0  0  0
   45.7821   -1.7288    1.7477 C   0  0  0  0  0  0  0  0  0  0  0  0
   46.7362   -2.4270    2.4142 C   0  0  0  0  0  0  0  0  0  0  0  0
   48.0062   -1.9997    1.8999 C   0  0  0  0  0  0  0  0  0  0  0  0
   47.8066   -1.0433    0.9403 N   0  0  0  0  0  0  0  0  0  0  0  0
   49.2459   -2.4739    2.3336 C   0  0  0  0  0  0  0  0  0  0  0  0
   49.2438   -3.5425    3.3620 C   0  0  0  0  0  0  0  0  0  0  0  0
   48.6706   -4.7889    3.1129 C   0  0  0  0  0  0  0  0  0  0  0  0
   48.6953   -5.7547    4.1067 C   0  0  0  0  0  0  0  0  0  0  0  0
   49.2395   -5.5507    5.3020 N   0  0  0  0  0  0  0  0  0  0  0  0
   49.7861   -4.3645    5.5485 C   0  0  0  0  0  0  0  0  0  0  0  0
   49.8150   -3.3382    4.6176 C   0  0  0  0  0  0  0  0  0  0  0  0
   50.4879   -2.0228    1.8823 C   0  0  0  0  0  0  0  0  0  0  0  0
   51.7552   -2.5610    2.2876 C   0  0  0  0  0  0  0  0  0  0  0  0
   52.7133   -1.8637    1.6257 C   0  0  0  0  0  0  0  0  0  0  0  0
   50.6931   -1.0188    0.9737 N   0  0  0  0  0  0  0  0  0  0  0  0
   52.0383   -0.9022    0.8071 C   0  0  0  0  0  0  0  0  0  0  0  0
   52.6896    0.0212   -0.0307 C   0  0  0  0  0  0  0  0  0  0  0  0
   52.0427    0.9428   -0.8739 C   0  0  0  0  0  0  0  0  0  0  0  0
   52.7220    1.9056   -1.6874 C   0  0  0  0  0  0  0  0  0  0  0  0
   51.7677    2.5982   -2.3597 C   0  0  0  0  0  0  0  0  0  0  0  0
   50.4986    2.0561   -1.9654 C   0  0  0  0  0  0  0  0  0  0  0  0
   50.6987    1.0549   -1.0528 N   0  0  0  0  0  0  0  0  0  0  0  0
   49.2593    2.5019   -2.4299 C   0  0  0  0  0  0  0  0  0  0  0  0
   49.2644    3.5636   -3.4651 C   0  0  0  0  0  0  0  0  0  0  0  0
   49.8532    3.3538   -4.7117 C   0  0  0  0  0  0  0  0  0  0  0  0
   49.8321    4.3738   -5.6497 C   0  0  0  0  0  0  0  0  0  0  0  0
   49.2764    5.5590   -5.4185 N   0  0  0  0  0  0  0  0  0  0  0  0
   48.7151    5.7681   -4.2320 C   0  0  0  0  0  0  0  0  0  0  0  0
   48.6820    4.8089   -3.2321 C   0  0  0  0  0  0  0  0  0  0  0  0
   48.0171    2.0291   -2.0016 C   0  0  0  0  0  0  0  0  0  0  0  0
   46.7497    2.4543   -2.5242 C   0  0  0  0  0  0  0  0  0  0  0  0
   45.7917    1.7640   -1.8547 C   0  0  0  0  0  0  0  0  0  0  0  0
   46.4671    0.9060   -0.9283 C   0  0  0  0  0  0  0  0  0  0  0  0
   47.8122    1.0796   -1.0363 N   0  0  0  0  0  0  0  0  0  0  0  0
   44.7116   -1.7810    1.8659 H   0  0  0  0  0  0  0  0  0  0  0  0
   46.5962   -3.1573    3.1945 H   0  0  0  0  0  0  0  0  0  0  0  0
   48.2257   -5.0043    2.1487 H   0  0  0  0  0  0  0  0  0  0  0  0
   48.2590   -6.7344    3.9347 H   0  0  0  0  0  0  0  0  0  0  0  0
   50.2205   -4.2274    6.5344 H   0  0  0  0  0  0  0  0  0  0  0  0
   50.2615   -2.3829    4.8668 H   0  0  0  0  0  0  0  0  0  0  0  0
   51.8905   -3.3771    2.9787 H   0  0  0  0  0  0  0  0  0  0  0  0
   53.7833   -1.9875    1.6751 H   0  0  0  0  0  0  0  0  0  0  0  0
   53.7919    2.0334   -1.7266 H   0  0  0  0  0  0  0  0  0  0  0  0
   51.9068    3.4141   -3.0502 H   0  0  0  0  0  0  0  0  0  0  0  0
   50.3077    2.3992   -4.9486 H   0  0  0  0  0  0  0  0  0  0  0  0
   50.2808    4.2325   -6.6286 H   0  0  0  0  0  0  0  0  0  0  0  0
   48.2718    6.7467   -4.0724 H   0  0  0  0  0  0  0  0  0  0  0  0
   48.2238    5.0288   -2.2752 H   0  0  0  0  0  0  0  0  0  0  0  0
   46.6137    3.1777   -3.3116 H   0  0  0  0  0  0  0  0  0  0  0  0
   44.7218    1.8174   -1.9769 H   0  0  0  0  0  0  0  0  0  0  0  0
   65.3014   -0.0018   -0.0252 Cu  0  0  0  0  0  0  0  0  0  0  0  0
   61.8652    0.0093   -0.0223 C   0  0  0  0  0  0  0  0  0  0  0  0
   62.5120   -0.8697    0.8654 C   0  0  0  0  0  0  0  0  0  0  0  0
   61.8330   -1.7209    1.7953 C   0  0  0  0  0  0  0  0  0  0  0  0
   62.7874   -2.4215    2.4592 C   0  0  0  0  0  0  0  0  0  0  0  0
   64.0562   -2.0073    1.9317 C   0  0  0  0  0  0  0  0  0  0  0  0
   63.8559   -1.0543    0.9687 N   0  0  0  0  0  0  0  0  0  0  0  0
   65.2955   -2.4931    2.3534 C   0  0  0  0  0  0  0  0  0  0  0  0
   65.2944   -3.5653    3.3778 C   0  0  0  0  0  0  0  0  0  0  0  0
   64.7061   -4.8048    3.1291 C   0  0  0  0  0  0  0  0  0  0  0  0
   64.7350   -5.7769    4.1165 C   0  0  0  0  0  0  0  0  0  0  0  0
   65.2970   -5.5852    5.3057 N   0  0  0  0  0  0  0  0  0  0  0  0
   65.8574   -4.4054    5.5521 C   0  0  0  0  0  0  0  0  0  0  0  0
   65.8835   -3.3737    4.6270 C   0  0  0  0  0  0  0  0  0  0  0  0
   66.5371   -2.0524    1.8904 C   0  0  0  0  0  0  0  0  0  0  0  0
   67.8038   -2.6013    2.2831 C   0  0  0  0  0  0  0  0  0  0  0  0
   68.7615   -1.9065    1.6180 C   0  0  0  0  0  0  0  0  0  0  0  0
   66.7418   -1.0462    0.9845 N   0  0  0  0  0  0  0  0  0  0  0  0
   68.0865   -0.9363    0.8095 C   0  0  0  0  0  0  0  0  0  0  0  0
   68.7373   -0.0074   -0.0221 C   0  0  0  0  0  0  0  0  0  0  0  0
   68.0912    0.9211   -0.8575 C   0  0  0  0  0  0  0  0  0  0  0  0
   68.7708    1.8864   -1.6679 C   0  0  0  0  0  0  0  0  0  0  0  0
   67.8167    2.5817   -2.3375 C   0  0  0  0  0  0  0  0  0  0  0  0
   66.5474    2.0384   -1.9453 C   0  0  0  0  0  0  0  0  0  0  0  0
   66.7472    1.0345   -1.0358 N   0  0  0  0  0  0  0  0  0  0  0  0
   65.3080    2.4829   -2.4107 C   0  0  0  0  0  0  0  0  0  0  0  0
   65.3117    3.5499   -3.4404 C   0  0  0  0  0  0  0  0  0  0  0  0
   65.9047    3.3510   -4.6867 C   0  0  0  0  0  0  0  0  0  0  0  0
   65.8818    4.3773   -5.6178 C   0  0  0  0  0  0  0  0  0  0  0  0
   65.3208    5.5586   -5.3801 N   0  0  0  0  0  0  0  0  0  0  0  0
   64.7554    5.7574   -4.1938 C   0  0  0  0  0  0  0  0  0  0  0  0
   64.7235    4.7912   -3.2007 C   0  0  0  0  0  0  0  0  0  0  0  0
   64.0662    2.0055   -1.9863 C   0  0  0  0  0  0  0  0  0  0  0  0
   62.7992    2.4250   -2.5140 C   0  0  0  0  0  0  0  0  0  0  0  0
   61.8413    1.7340   -1.8450 C   0  0  0  0  0  0  0  0  0  0  0  0
   62.5164    0.8824   -0.9126 C   0  0  0  0  0  0  0  0  0  0  0  0
   63.8613    1.0579   -1.0188 N   0  0  0  0  0  0  0  0  0  0  0  0
   60.7631   -1.7646    1.9223 H   0  0  0  0  0  0  0  0  0  0  0  0
   62.6487   -3.1452    3.2459 H   0  0  0  0  0  0  0  0  0  0  0  0
   64.2468   -5.0102    2.1694 H   0  0  0  0  0  0  0  0  0  0  0  0
   64.2877   -6.7516    3.9444 H   0  0  0  0  0  0  0  0  0  0  0  0
   66.3061   -4.2784    6.5329 H   0  0  0  0  0  0  0  0  0  0  0  0
   66.3423   -2.4243    4.8761 H   0  0  0  0  0  0  0  0  0  0  0  0
   67.9393   -3.4217    2.9689 H   0  0  0  0  0  0  0  0  0  0  0  0
   69.8310   -2.0370    1.6590 H   0  0  0  0  0  0  0  0  0  0  0  0
   69.8408    2.0132   -1.7074 H   0  0  0  0  0  0  0  0  0  0  0  0
   67.9562    3.3994   -3.0258 H   0  0  0  0  0  0  0  0  0  0  0  0
   66.3635    2.3998   -4.9292 H   0  0  0  0  0  0  0  0  0  0  0  0
   66.3336    4.2445   -6.5965 H   0  0  0  0  0  0  0  0  0  0  0  0
   64.3076    6.7331   -4.0287 H   0  0  0  0  0  0  0  0  0  0  0  0
   64.2617    5.0026   -2.2435 H   0  0  0  0  0  0  0  0  0  0  0  0
   62.6635    3.1452   -3.3044 H   0  0  0  0  0  0  0  0  0  0  0  0
   60.7716    1.7840   -1.9705 H   0  0  0  0  0  0  0  0  0  0  0  0
  2  3  4  0  0  0  0
  3  4  1  0  0  0  0
  4  5  2  0  0  0  0
  5  6  4  0  0  0  0
  1  7  1  0  0  0  0
  3  7  4  0  0  0  0
  6  7  4  0  0  0  0
  6  8  4  0  0  0  0
  8  9  1  0  0  0  0
  9 10  4  0  0  0  0
 10 11  4  0  0  0  0
 11 12  4  0  0  0  0
 12 13  4  0  0  0  0
  9 14  4  0  0  0  0
 13 14  4  0  0  0  0
  8 15  4  0  0  0  0
 15 16  4  0  0  0  0
 16 17  2  0  0  0  0
  1 18  1  0  0  0  0
 15 18  4  0  0  0  0
 17 19  4  0  0  0  0
 18 19  4  0  0  0  0
 19 20  4  0  0  0  0
 20 21  4  0  0  0  0
 21 22  4  0  0  0  0
 22 23  2  0  0  0  0
 23 24  4  0  0  0  0
  1 25  1  0  0  0  0
 21 25  4  0  0  0  0
 24 25  4  0  0  0  0
 24 26  4  0  0  0  0
 26 27  1  0  0  0  0
 27 28  4  0  0  0  0
 28 29  4  0  0  0  0
 29 30  4  0  0  0  0
 30 31  4  0  0  0  0
 27 32  4  0  0  0  0
 31 32  4  0  0  0  0
 26 33  4  0  0  0  0
 33 34  4  0  0  0  0
 34 35  2  0  0  0  0
  2 36  4  0  0  0  0
 35 36  1  0  0  0  0
  1 37  1  0  0  0  0
 33 37  4  0  0  0  0
 36 37  4  0  0  0  0
  2 38  1  0  0  0  0
  4 39  1  0  0  0  0
  5 40  1  0  0  0  0
 10 41  1  0  0  0  0
 11 42  1  0  0  0  0
 13 43  1  0  0  0  0
 14 44  1  0  0  0  0
 16 45  1  0  0  0  0
 17 46  1  0  0  0  0
 22 47  1  0  0  0  0
 23 48  1  0  0  0  0
 28 49  1  0  0  0  0
 29 50  1  0  0  0  0
 31 51  1  0  0  0  0
 32 52  1  0  0  0  0
 34 53  1  0  0  0  0
 35 54  1  0  0  0  0
 56 57  4  0  0  0  0
 57 58  1  0  0  0  0
 58 59  2  0  0  0  0
 59 60  4  0  0  0  0
 55 61  1  0  0  0  0
 57 61  4  0  0  0  0
 60 61  4  0  0  0  0
 60 62  4  0  0  0  0
 62 63  1  0  0  0  0
 63 64  4  0  0  0  0
 64 65  4  0  0  0  0
 65 66  4  0  0  0  0
 66 67  4  0  0  0  0
 63 68  4  0  0  0  0
 67 68  4  0  0  0  0
 62 69  4  0  0  0  0
 69 70  4  0  0  0  0
 70 71  2  0  0  0  0
 55 72  1  0  0  0  0
 69 72  4  0  0  0  0
 71 73  4  0  0  0  0
 72 73  4  0  0  0  0
 73 74  4  0  0  0  0
 74 75  4  0  0  0  0
 75 76  4  0  0  0  0
 76 77  2  0  0  0  0
 77 78  4  0  0  0  0
 55 79  1  0  0  0  0
 75 79  4  0  0  0  0
 78 79  4  0  0  0  0
 78 80  4  0  0  0  0
 80 81  1  0  0  0  0
 81 82  4  0  0  0  0
 82 83  4  0  0  0  0
 83 84  4  0  0  0  0
 84 85  4  0  0  0  0
 81 86  4  0  0  0  0
 85 86  4  0  0  0  0
 80 87  4  0  0  0  0
 87 88  4  0  0  0  0
 88 89  2  0  0  0  0
 56 90  4  0  0  0  0
 89 90  1  0  0  0  0
 55 91  1  0  0  0  0
 87 91  4  0  0  0  0
 90 91  4  0  0  0  0
 56 92  1  0  0  0  0
 58 93  1  0  0  0  0
 59 94  1  0  0  0  0
 64 95  1  0  0  0  0
 65 96  1  0  0  0  0
 67 97  1  0  0  0  0
 68 98  1  0  0  0  0
 70 99  1  0  0  0  0
 71100  1  0  0  0  0
 76101  1  0  0  0  0
 77102  1  0  0  0  0
 82103  1  0  0  0  0
 83104  1  0  0  0  0
 85105  1  0  0  0  0
 86106  1  0  0  0  0
 88107  1  0  0  0  0
 89108  1  0  0  0  0
109110  3  0  0  0  0
110111  4  0  0  0  0
 20112  4  0  0  0  0
111112  3  0  0  0  0
109113  4  0  0  0  0
113114  3  0  0  0  0
115116  3  0  0  0  0
116117  4  0  0  0  0
117118  3  0  0  0  0
115119  4  0  0  0  0
119120  3  0  0  0  0
121122  3  0  0  0  0
122123  4  0  0  0  0
123124  3  0  0  0  0
121125  4  0  0  0  0
 74126  4  0  0  0  0
125126  3  0  0  0  0
114128  4  0  0  0  0
128129  4  0  0  0  0
129130  4  0  0  0  0
130131  2  0  0  0  0
131132  4  0  0  0  0
127133  1  0  0  0  0
129133  4  0  0  0  0
132133  4  0  0  0  0
132134  4  0  0  0  0
134135  1  0  0  0  0
135136  4  0  0  0  0
136137  4  0  0  0  0
137138  4  0  0  0  0
138139  4  0  0  0  0
135140  4  0  0  0  0
139140  4  0  0  0  0
134141  4  0  0  0  0
141142  4  0  0  0  0
142143  2  0  0  0  0
127144  1  0  0  0  0
141144  4  0  0  0  0
143145  4  0  0  0  0
144145  4  0  0  0  0
118146  4  0  0  0  0
145146  4  0  0  0  0
146147  4  0  0  0  0
147148  4  0  0  0  0
148149  2  0  0  0  0
149150  4  0  0  0  0
127151  1  0  0  0  0
147151  4  0  0  0  0
150151  4  0  0  0  0
150152  4  0  0  0  0
152153  1  0  0  0  0
153154  4  0  0  0  0
154155  4  0  0  0  0
155156  4  0  0  0  0
156157  4  0  0  0  0
153158  4  0  0  0  0
157158  4  0  0  0  0
152159  4  0  0  0  0
159160  4  0  0  0  0
160161  2  0  0  0  0
128162  4  0  0  0  0
161162  4  0  0  0  0
127163  1  0  0  0  0
159163  4  0  0  0  0
162163  4  0  0  0  0
130164  1  0  0  0  0
131165  1  0  0  0  0
136166  1  0  0  0  0
137167  1  0  0  0  0
139168  1  0  0  0  0
140169  1  0  0  0  0
142170  1  0  0  0  0
143171  1  0  0  0  0
148172  1  0  0  0  0
149173  1  0  0  0  0
154174  1  0  0  0  0
155175  1  0  0  0  0
157176  1  0  0  0  0
158177  1  0  0  0  0
160178  1  0  0  0  0
161179  1  0  0  0  0
120181  4  0  0  0  0
181182  4  0  0  0  0
182183  4  0  0  0  0
183184  2  0  0  0  0
184185  4  0  0  0  0
180186  1  0  0  0  0
182186  4  0  0  0  0
185186  4  0  0  0  0
185187  4  0  0  0  0
187188  1  0  0  0  0
188189  4  0  0  0  0
189190  4  0  0  0  0
190191  4  0  0  0  0
191192  4  0  0  0  0
188193  4  0  0  0  0
192193  4  0  0  0  0
187194  4  0  0  0  0
194195  4  0  0  0  0
195196  2  0  0  0  0
180197  1  0  0  0  0
194197  4  0  0  0  0
196198  4  0  0  0  0
197198  4  0  0  0  0
124199  4  0  0  0  0
198199  4  0  0  0  0
199200  4  0  0  0  0
200201  4  0  0  0  0
201202  2  0  0  0  0
202203  4  0  0  0  0
180204  1  0  0  0  0
200204  4  0  0  0  0
203204  4  0  0  0  0
203205  4  0  0  0  0
205206  1  0  0  0  0
206207  4  0  0  0  0
207208  4  0  0  0  0
208209  4  0  0  0  0
209210  4  0  0  0  0
206211  4  0  0  0  0
210211  4  0  0  0  0
205212  4  0  0  0  0
212213  4  0  0  0  0
213214  2  0  0  0  0
181215  4  0  0  0  0
214215  4  0  0  0  0
180216  1  0  0  0  0
212216  4  0  0  0  0
215216  4  0  0  0  0
183217  1  0  0  0  0
184218  1  0  0  0  0
189219  1  0  0  0  0
190220  1  0  0  0  0
192221  1  0  0  0  0
193222  1  0  0  0  0
195223  1  0  0  0  0
196224  1  0  0  0  0
201225  1  0  0  0  0
202226  1  0  0  0  0
207227  1  0  0  0  0
208228  1  0  0  0  0
210229  1  0  0  0  0
211230  1  0  0  0  0
213231  1  0  0  0  0
214232  1  0  0  0  0
M  END
