120

Cu 16.233685 -0.011812 -0.014976
C 12.847979 0.130511 0.032900
C 13.513475 0.920314 0.880421
C 12.865869 1.805843 1.841156
C 13.810381 2.453817 2.497843
C 15.114903 2.015254 1.982456
N 14.933258 1.037737 0.957797
C 16.308275 2.488683 2.388724
C 16.349688 3.502560 3.418932
C 16.386717 4.347778 4.277673
C 16.431626 5.356090 5.302454
C 17.637219 6.001250 5.601732
C 17.659070 6.977829 6.601079
N 16.518025 7.293043 7.271933
C 15.335514 6.678522 6.997467
C 15.270087 5.696512 6.005407
C 17.603176 2.033755 1.822951
C 18.894491 2.653466 2.143873
C 19.830841 1.991403 1.495920
N 17.743591 1.029850 1.011478
C 19.145405 0.938324 0.755555
C 19.741437 0.000234 0.000066
C 18.984449 -1.047008 -0.726086
C 19.537331 -2.127884 -1.262820
C 18.490884 -2.850099 -1.957957
C 17.364308 -2.164225 -1.800651
N 17.586056 -0.991606 -1.013639
C 16.066842 -2.535309 -2.419805
C 16.060145 -3.545525 -3.456034
C 16.055008 -4.387261 -4.319060
C 16.048710 -5.391603 -5.348760
C 17.241787 -6.015838 -5.729397
C 17.213920 -6.988455 -6.732498
N 16.037000 -7.320370 -7.328306
C 14.865651 -6.726641 -6.973841
C 14.849515 -5.749035 -5.975249
C 14.903779 -1.972737 -2.048655
C 13.584086 -2.289232 -2.592788
C 12.721939 -1.561493 -1.909663
C 13.481397 -0.778241 -0.936060
N 14.754366 -1.010829 -1.006966
H 11.764535 0.154093 0.051971
H 11.801520 1.924697 1.998582
H 13.627985 3.185550 3.274468
H 18.547951 5.752404 5.069249
H 18.583619 7.485240 6.843448
H 14.445844 6.952282 7.549360
H 14.326556 5.209137 5.789081
H 19.069163 3.501591 2.793044
H 20.890048 2.208406 1.531955
H 20.579146 -2.414993 -1.217050
H 18.616569 -3.766355 -2.520277
H 18.180911 -5.753944 -5.256765
H 18.128464 -7.479591 -7.037311
H 13.946475 -7.013350 -7.467156
H 13.914659 -5.278165 -5.695421
H 13.336767 -2.982949 -3.386087
H 11.649238 -1.558073 -2.051866
Cu 29.549067 0.019326 0.002682
C 32.934774 -0.094823 -0.094879
C 32.269278 -1.227597 -0.337580
C 32.916884 -2.506669 -0.604311
C 31.972372 -3.402866 -0.823267
C 30.667849 -2.735433 -0.711484
N 30.849495 -1.354279 -0.398628
C 29.474478 -3.327122 -0.909205
C 29.433065 -4.731703 -1.250416
C 29.396036 -5.902554 -1.534913
C 29.351126 -7.299622 -1.874135
C 28.145533 -7.887654 -2.274156
C 28.123682 -9.246605 -2.599202
N 29.264728 -9.984132 -2.525319
C 30.447239 -9.433121 -2.138854
C 30.512666 -8.077635 -1.805406
C 28.179577 -2.608049 -0.809245
C 26.888262 -3.201591 -1.176315
C 25.951912 -2.305657 -0.940785
N 28.039161 -1.396297 -0.364301
C 26.637348 -1.129686 -0.417137
C 26.041315 0.000234 0.000066
C 26.798304 1.161011 0.526001
C 26.245422 2.176502 1.178039
C 27.291868 3.143807 1.440967
C 28.418445 2.656709 0.933124
N 28.196697 1.379340 0.330837
C 29.715911 3.378551 0.933727
C 29.722608 4.786421 1.268707
C 29.727745 5.959161 1.548016
C 29.734043 7.358412 1.881305
C 28.540966 8.005522 2.221602
C 28.568833 9.365660 2.541321
N 29.745753 10.047358 2.520295
C 30.917102 9.438369 2.192742
C 30.933238 8.079539 1.866427
C 30.878974 2.771237 0.641478
C 32.198667 3.400674 0.633749
C 33.060814 2.440841 0.359914
C 32.301356 1.203230 0.187559
N 31.028387 1.383482 0.350759
H 34.018218 -0.123295 -0.105326
H 33.981233 -2.702784 -0.625492
H 32.154768 -4.444987 -1.052529
H 27.234802 -7.302944 -2.333960
H 27.199134 -9.715085 -2.910225
H 31.336909 -10.047278 -2.090466
H 31.456197 -7.641791 -1.498209
H 26.713590 -4.194087 -1.570892
H 24.892704 -2.447983 -1.108512
H 25.203606 2.284615 1.447924
H 27.166183 4.096746 1.938598
H 27.601841 7.465476 2.239483
H 27.654289 9.879373 2.806320
H 31.836278 10.008903 2.185539
H 31.868093 7.597671 1.605994
H 32.445986 4.437589 0.821827
H 34.133515 2.561120 0.283977
C 22.155885 0.012405 0.002433
C 20.903615 -0.006776 -0.001916
C 23.469553 0.011639 0.004365
C 24.972687 -0.006776 -0.001916
