126

C 9.852922 -0.013912 0.106881
C 10.581142 1.362052 0.185634
C 9.973834 2.583712 0.364002
C 10.996453 3.566546 0.316930
C 12.193923 2.910789 0.101854
N 11.933178 1.563523 0.070489
C 13.616764 3.579592 -0.101097
C 13.656162 5.045567 -0.304826
C 13.960511 5.896876 0.764435
C 13.989444 7.280580 0.577409
C 13.712943 7.820404 -0.683246
C 13.743737 9.240159 -0.879134
N 13.767462 10.389643 -1.043422
C 13.406247 6.972996 -1.753718
C 13.378023 5.589025 -1.563032
C 14.747037 2.823107 -0.124580
C 16.050130 3.404001 -0.376666
C 16.953557 2.431383 -0.360507
N 14.945155 1.477611 0.043201
C 16.277117 1.178661 -0.086015
C 16.948482 -0.000992 -0.000694
C 16.175336 -1.348988 0.326230
C 16.729036 -2.500414 0.853434
C 15.701722 -3.473570 0.926045
C 14.548028 -2.887480 0.450484
N 14.833471 -1.578896 0.144011
C 13.134948 -3.590328 0.295966
C 13.102568 -5.066106 0.209224
C 12.760208 -5.836717 1.327507
C 12.738808 -7.229892 1.242152
C 13.064083 -7.861260 0.036510
C 13.040419 -9.291561 -0.053708
N 13.022225 -10.450551 -0.127428
C 13.410737 -7.094680 -1.082123
C 13.429086 -5.701644 -0.993932
C 12.007603 -2.837827 0.211608
C 10.684205 -3.416463 0.056119
C 9.796877 -2.426282 0.018707
C 10.519176 -1.183524 0.131915
N 11.841573 -1.481243 0.241381
H 8.774076 -0.012467 0.005862
H 8.915873 2.749640 0.497053
H 10.868179 4.634664 0.405784
H 12.632579 0.830912 -0.019933
H 14.179028 5.463048 1.739012
H 14.229262 7.922597 1.420531
H 13.190518 7.373129 -2.740058
H 13.142632 4.919859 -2.387457
H 16.263061 4.441569 -0.562357
H 18.006082 2.573958 -0.524366
H 17.762148 -2.634494 1.136234
H 15.799988 -4.491122 1.268267
H 14.145567 -0.883293 -0.135540
H 12.505736 -5.332980 2.257820
H 12.467423 -7.808756 2.120683
H 13.668951 -7.565897 -2.026925
H 13.692704 -5.093271 -1.858270
H 10.452670 -4.463319 -0.016754
H 8.731589 -2.526180 -0.088514
C 34.887380 0.041293 0.099062
C 34.159161 -1.258686 0.556809
C 34.766469 -2.382769 1.067405
C 33.743849 -3.340020 1.295107
C 32.546379 -2.769778 0.906393
N 32.807124 -1.484208 0.502139
C 31.123538 -3.468634 0.897144
C 31.084141 -4.933527 1.108513
C 30.779792 -5.454432 2.372121
C 30.750859 -6.835651 2.576691
C 31.027359 -7.704316 1.515521
C 30.996565 -9.122630 1.721588
N 30.972841 -10.272526 1.882962
C 31.334055 -7.187495 0.251833
C 31.362280 -5.805002 0.050705
C 29.993265 -2.748423 0.664516
C 28.690172 -3.376473 0.583652
C 27.786745 -2.437619 0.329090
N 29.795148 -1.409253 0.452067
C 28.463186 -1.157942 0.244918
C 27.791820 -0.000992 -0.000694
C 28.564966 1.384772 -0.060953
C 28.011266 2.637313 0.125778
C 29.038580 3.592359 -0.074702
C 30.192274 2.897261 -0.368809
N 29.906831 1.555038 -0.299849
C 31.605354 3.529558 -0.712424
C 31.637735 4.923207 -1.205563
C 31.980094 5.974047 -0.345252
C 32.001494 7.288727 -0.814120
C 31.676219 7.560469 -2.147670
C 31.699884 8.909466 -2.631520
N 31.718078 10.002402 -3.024180
C 31.329565 6.513405 -3.009436
C 31.311217 5.199646 -2.537882
C 32.732700 2.783227 -0.584502
C 34.056097 3.295928 -0.894557
C 34.943426 2.334301 -0.655534
C 34.221127 1.171857 -0.201678
N 32.898730 1.488264 -0.179190
H 35.966227 0.011853 0.002418
H 35.824429 -2.505224 1.241299
H 33.872124 -4.341456 1.677073
H 32.107724 -0.805520 0.211834
H 30.561274 -4.767036 3.187899
H 30.511041 -7.218292 3.564936
H 31.549785 -7.845788 -0.584602
H 31.597670 -5.391089 -0.927117
H 28.477241 -4.424798 0.693387
H 26.734221 -2.620090 0.211267
H 26.978155 2.844650 0.360223
H 28.940315 4.664923 -0.028504
H 30.594736 0.809164 -0.375243
H 32.234567 5.748460 0.688355
H 32.272879 8.088784 -0.130886
H 31.071352 6.703728 -4.047932
H 31.047599 4.375182 -3.199288
H 34.287633 4.281376 -1.255266
H 36.008714 2.400496 -0.786279
C 17.869788 0.014628 0.010232
C 19.328014 -0.007209 -0.007641
C 20.461942 -0.027963 -0.009132
C 21.823324 -0.040552 -0.011323
C 23.097543 -0.030246 -0.016088
C 24.286005 -0.011448 -0.022244
C 25.638366 0.013336 -0.006376
C 26.738633 0.014628 0.010232
