238

Co 28.241384 0.011095 -0.011937
C 24.875350 -0.103057 -0.043874
C 25.538288 -1.261483 0.013680
C 24.886653 -2.564413 0.072491
C 25.826511 -3.484785 0.179417
C 27.132673 -2.812010 0.193370
N 26.956514 -1.399096 0.083434
C 28.321568 -3.429942 0.346911
C 28.357343 -4.901135 0.497255
C 28.562616 -5.477594 1.757794
C 28.591286 -6.868897 1.878792
N 28.418624 -7.652725 0.781067
C 28.216684 -7.117774 -0.452689
C 28.183345 -5.731104 -0.618456
C 29.615810 -2.699192 0.386801
C 30.905826 -3.336884 0.676265
C 31.840455 -2.412643 0.592486
N 29.757667 -1.435031 0.127652
C 31.156829 -1.174913 0.239510
C 31.753215 0.002256 -0.012756
C 30.995352 1.218122 -0.386056
C 31.538646 2.291575 -0.945918
C 30.495974 3.291148 -1.064014
C 29.384319 2.764376 -0.564985
N 29.609069 1.427320 -0.114519
C 28.099212 3.497630 -0.428076
C 28.122060 4.980271 -0.475271
C 27.460347 5.674204 -1.498817
C 27.504557 7.070111 -1.521606
N 28.191192 7.747296 -0.562854
C 28.850394 7.099413 0.433680
C 28.831493 5.704079 0.494137
C 26.932321 2.848851 -0.250756
C 25.620114 3.465147 -0.060892
C 24.757874 2.471616 0.032915
C 25.510265 1.223670 -0.082462
N 26.778629 1.430838 -0.247947
H 23.792200 -0.131039 -0.044069
H 23.822267 -2.758949 0.047342
H 25.637975 -4.547766 0.257012
H 28.699018 -4.856183 2.634237
H 28.750100 -7.326041 2.846252
H 28.081511 -7.769336 -1.305616
H 28.021910 -5.308113 -1.602188
H 31.083921 -4.377606 0.911003
H 32.898212 -2.575768 0.746524
H 32.571825 2.416679 -1.239576
H 30.613958 4.290261 -1.461789
H 26.919703 5.139531 -2.269088
H 26.993898 7.615576 -2.303929
H 29.388651 7.667664 1.180820
H 29.356987 5.192978 1.291372
H 25.375590 4.517487 -0.000065
H 23.690754 2.576126 0.179160
Co 86.331745 -0.005962 -0.009403
C 89.697779 0.093973 -0.073148
C 89.034841 1.219092 -0.354876
C 89.686476 2.482839 -0.677413
C 88.746618 3.394541 -0.842690
C 87.440456 2.754885 -0.633741
N 87.616616 1.371042 -0.328144
C 86.251561 3.390764 -0.666487
C 86.215786 4.842116 -0.950364
C 86.010513 5.760158 0.088127
C 85.981843 7.126540 -0.200602
N 86.154505 7.557362 -1.478796
C 86.356445 6.686822 -2.503729
C 86.389784 5.311857 -2.259182
C 84.957319 2.703177 -0.415865
C 83.667303 3.397481 -0.324304
C 82.732675 2.488806 -0.135754
N 84.815463 1.418279 -0.296283
C 83.416300 1.201919 -0.113632
C 82.819914 0.002256 -0.012756
C 83.577778 -1.269620 -0.016435
C 83.034483 -2.459475 -0.240024
C 84.077155 -3.450204 -0.062407
C 85.188811 -2.801102 0.261915
N 84.964060 -1.390836 0.304193
C 86.473917 -3.462878 0.606093
C 86.451069 -4.895195 0.991992
C 87.112782 -5.856733 0.214411
C 87.068572 -7.198968 0.598446
N 86.381938 -7.568158 1.712664
C 85.722735 -6.658533 2.477789
C 85.741636 -5.305896 2.129961
C 87.640808 -2.790571 0.587131
C 88.953015 -3.325044 0.947972
C 89.815256 -2.347158 0.748872
C 89.062864 -1.186662 0.275657
N 87.794501 -1.432994 0.177551
H 90.780929 0.120690 -0.081470
H 90.750862 2.661661 -0.758034
H 88.935154 4.434165 -1.077493
H 85.874111 5.420403 1.107377
H 85.823029 7.845212 0.592159
H 86.491618 7.062263 -3.509244
H 86.551220 4.621133 -3.077441
H 83.489208 4.461494 -0.402281
H 81.674917 2.689669 -0.035797
H 82.001304 -2.664552 -0.484624
H 83.959171 -4.521806 -0.152522
H 87.653426 -5.569101 -0.678036
H 87.579231 -7.948319 0.008502
H 85.184478 -6.985018 3.357866
H 85.216143 -4.585089 2.744164
H 89.197539 -4.314243 1.312123
H 90.882375 -2.404635 0.919185
C 34.533024 0.014767 -0.004005
C 35.991251 -0.007069 -0.021878
C 37.125179 -0.027823 -0.023369
C 38.486561 -0.040413 -0.025560
C 39.760779 -0.030106 -0.030325
C 40.949242 -0.011308 -0.036481
C 42.301603 0.013476 -0.020613
C 43.401870 0.014767 -0.004005
C 52.799324 0.014767 -0.004005
C 54.257550 -0.007069 -0.021878
C 55.391478 -0.027823 -0.023369
C 56.752860 -0.040413 -0.025560
C 58.027079 -0.030106 -0.030325
C 59.215541 -0.011308 -0.036481
C 60.567902 0.013476 -0.020613
C 61.668169 0.014767 -0.004005
C 71.065623 0.014767 -0.004005
C 72.523850 -0.007069 -0.021878
C 73.657778 -0.027823 -0.023369
C 75.019159 -0.040413 -0.025560
C 76.293378 -0.030106 -0.030325
C 77.481841 -0.011308 -0.036481
C 78.834201 0.013476 -0.020613
C 79.934469 0.014767 -0.004005
Co 48.075711 0.028918 -0.055950
C 44.708068 -0.005642 0.013903
C 45.363389 -0.803935 0.876619
C 44.722512 -1.625549 1.905376
C 45.658825 -2.309902 2.531972
C 46.956076 -1.970300 1.938426
N 46.778299 -1.008989 0.894995
C 48.140467 -2.498015 2.315095
C 48.176532 -3.534417 3.373164
C 47.648952 -4.812126 3.136480
C 47.708510 -5.776695 4.145050
N 48.279060 -5.477355 5.342453
C 48.803201 -4.248436 5.595313
C 48.763581 -3.254270 4.614832
C 49.437104 -2.083943 1.720744
C 50.705228 -2.787115 1.953406
C 51.657261 -2.118140 1.335019
N 49.604952 -1.029925 0.984304
C 51.002674 -0.983357 0.697109
C 51.617637 -0.005642 0.013903
C 50.866576 1.094620 -0.625740
C 51.399071 2.252044 -0.996213
C 50.366963 2.995083 -1.694514
C 49.275949 2.237787 -1.706259
N 49.501406 1.002235 -1.029911
C 48.023236 2.578713 -2.422657
C 48.086202 3.567802 -3.526956
C 48.893188 3.322634 -4.647215
C 48.957652 4.272491 -5.669399
N 48.247397 5.427854 -5.573011
C 47.463589 5.694966 -4.494658
C 47.371178 4.772633 -3.449745
C 46.851925 1.995273 -2.102463
C 45.577008 2.196057 -2.783794
C 44.689282 1.487608 -2.116133
C 45.386169 0.824052 -1.008776
N 46.650249 1.113792 -0.997394
H 43.667837 -1.681225 2.139390
H 45.472223 -2.994137 3.349323
H 47.199124 -5.056528 2.182062
H 47.302684 -6.764912 3.974812
H 49.251874 -4.042979 6.557845
H 49.183748 -2.277222 4.819835
H 50.854648 -3.691803 2.527963
H 52.706118 -2.383178 1.323175
H 52.420843 2.572760 -0.842762
H 50.481344 3.967535 -2.155703
H 49.462388 2.404704 -4.728600
H 49.573991 4.091267 -6.539754
H 46.914069 6.625576 -4.446584
H 46.753539 4.995492 -2.588367
H 45.373351 2.790920 -3.664402
H 43.639551 1.416319 -2.367074
Co 66.342010 0.028918 -0.055950
C 62.974367 -0.005642 0.013903
C 63.629688 -0.803935 0.876619
C 62.988811 -1.625549 1.905376
C 63.925125 -2.309902 2.531972
C 65.222375 -1.970300 1.938426
N 65.044598 -1.008989 0.894995
C 66.406767 -2.498015 2.315095
C 66.442832 -3.534417 3.373164
C 65.915251 -4.812126 3.136480
C 65.974809 -5.776695 4.145050
N 66.545359 -5.477355 5.342453
C 67.069501 -4.248436 5.595313
C 67.029880 -3.254270 4.614832
C 67.703403 -2.083943 1.720744
C 68.971527 -2.787115 1.953406
C 69.923561 -2.118140 1.335019
N 67.871252 -1.029925 0.984304
C 69.268974 -0.983357 0.697109
C 69.883936 -0.005642 0.013903
C 69.132876 1.094620 -0.625740
C 69.665370 2.252044 -0.996213
C 68.633262 2.995083 -1.694514
C 67.542248 2.237787 -1.706259
N 67.767705 1.002235 -1.029911
C 66.289535 2.578713 -2.422657
C 66.352502 3.567802 -3.526956
C 67.159488 3.322634 -4.647215
C 67.223951 4.272491 -5.669399
N 66.513696 5.427854 -5.573011
C 65.729888 5.694966 -4.494658
C 65.637477 4.772633 -3.449745
C 65.118225 1.995273 -2.102463
C 63.843307 2.196057 -2.783794
C 62.955581 1.487608 -2.116133
C 63.652468 0.824052 -1.008776
N 64.916548 1.113792 -0.997394
H 61.934137 -1.681225 2.139390
H 63.738523 -2.994137 3.349323
H 65.465424 -5.056528 2.182062
H 65.568984 -6.764912 3.974812
H 67.518174 -4.042979 6.557845
H 67.450048 -2.277222 4.819835
H 69.120947 -3.691803 2.527963
H 70.972418 -2.383178 1.323175
H 70.687142 2.572760 -0.842762
H 68.747644 3.967535 -2.155703
H 67.728687 2.404704 -4.728600
H 67.840291 4.091267 -6.539754
H 65.180368 6.625576 -4.446584
H 65.019838 4.995492 -2.588367
H 63.639650 2.790920 -3.664402
H 61.905850 1.416319 -2.367074
