 xtb: 6.5.1 (b24c23e)
          07262215503D

398447  0     0  0            999 V2000
   67.9615   -0.0424   -0.0111 C   0  0  0  0  0  0  0  0  0  0  0  0
   68.5800   -1.2854   -0.0580 C   0  0  0  0  0  0  0  0  0  0  0  0
   67.9600   -2.5668   -0.1118 C   0  0  0  0  0  0  0  0  0  0  0  0
   68.9477   -3.5107   -0.1448 C   0  0  0  0  0  0  0  0  0  0  0  0
   70.2021   -2.8360   -0.1123 C   0  0  0  0  0  0  0  0  0  0  0  0
   69.9290   -1.4996   -0.0606 N   0  0  0  0  0  0  0  0  0  0  0  0
   71.4681   -3.4096   -0.1288 C   0  0  0  0  0  0  0  0  0  0  0  0
   72.6910   -2.7549   -0.0980 C   0  0  0  0  0  0  0  0  0  0  0  0
   73.9662   -3.4494   -0.1199 C   0  0  0  0  0  0  0  0  0  0  0  0
   74.9202   -2.4962   -0.0807 C   0  0  0  0  0  0  0  0  0  0  0  0
   72.8904   -1.4096   -0.0459 N   0  0  0  0  0  0  0  0  0  0  0  0
   74.2239   -1.2229   -0.0349 C   0  0  0  0  0  0  0  0  0  0  0  0
   74.8846    0.0225    0.0127 C   0  0  0  0  0  0  0  0  0  0  0  0
   74.2405    1.2735    0.0595 C   0  0  0  0  0  0  0  0  0  0  0  0
   74.8552    2.5537    0.1107 C   0  0  0  0  0  0  0  0  0  0  0  0
   73.8636    3.4952    0.1458 C   0  0  0  0  0  0  0  0  0  0  0  0
   72.6135    2.8161    0.1170 C   0  0  0  0  0  0  0  0  0  0  0  0
   72.8938    1.4773    0.0653 N   0  0  0  0  0  0  0  0  0  0  0  0
   71.3486    3.3905    0.1361 C   0  0  0  0  0  0  0  0  0  0  0  0
   70.1249    2.7333    0.1064 C   0  0  0  0  0  0  0  0  0  0  0  0
   68.8433    3.4215    0.1288 C   0  0  0  0  0  0  0  0  0  0  0  0
   67.8954    2.4637    0.0877 C   0  0  0  0  0  0  0  0  0  0  0  0
   68.5988    1.1917    0.0402 C   0  0  0  0  0  0  0  0  0  0  0  0
   69.9379    1.3936    0.0531 N   0  0  0  0  0  0  0  0  0  0  0  0
   66.8767   -0.0445   -0.0155 H   0  0  0  0  0  0  0  0  0  0  0  0
   66.8940   -2.7298   -0.1231 H   0  0  0  0  0  0  0  0  0  0  0  0
   68.8319   -4.5821   -0.1881 H   0  0  0  0  0  0  0  0  0  0  0  0
   70.6269   -0.7640   -0.0284 H   0  0  0  0  0  0  0  0  0  0  0  0
   71.4939   -4.4939   -0.1710 H   0  0  0  0  0  0  0  0  0  0  0  0
   74.0819   -4.5211   -0.1601 H   0  0  0  0  0  0  0  0  0  0  0  0
   75.9923   -2.6125   -0.0815 H   0  0  0  0  0  0  0  0  0  0  0  0
   75.9205    2.7202    0.1191 H   0  0  0  0  0  0  0  0  0  0  0  0
   73.9764    4.5668    0.1880 H   0  0  0  0  0  0  0  0  0  0  0  0
   72.1985    0.7389    0.0351 H   0  0  0  0  0  0  0  0  0  0  0  0
   71.3241    4.4747    0.1784 H   0  0  0  0  0  0  0  0  0  0  0  0
   68.7221    4.4927    0.1703 H   0  0  0  0  0  0  0  0  0  0  0  0
   66.8221    2.5726    0.0880 H   0  0  0  0  0  0  0  0  0  0  0  0
  197.1895    0.0437   -0.0055 C   0  0  0  0  0  0  0  0  0  0  0  0
  196.5730    1.2751   -0.1876 C   0  0  0  0  0  0  0  0  0  0  0  0
  197.1955    2.5428   -0.3743 C   0  0  0  0  0  0  0  0  0  0  0  0
  196.2096    3.4791   -0.5116 C   0  0  0  0  0  0  0  0  0  0  0  0
  194.9540    2.8134   -0.4133 C   0  0  0  0  0  0  0  0  0  0  0  0
  195.2244    1.4896   -0.2191 N   0  0  0  0  0  0  0  0  0  0  0  0
  193.6889    3.3835   -0.4958 C   0  0  0  0  0  0  0  0  0  0  0  0
  192.4651    2.7367   -0.4009 C   0  0  0  0  0  0  0  0  0  0  0  0
  191.1907    3.4259   -0.5009 C   0  0  0  0  0  0  0  0  0  0  0  0
  190.2356    2.4827   -0.3653 C   0  0  0  0  0  0  0  0  0  0  0  0
  192.2641    1.4046   -0.2080 N   0  0  0  0  0  0  0  0  0  0  0  0
  190.9304    1.2208   -0.1828 C   0  0  0  0  0  0  0  0  0  0  0  0
  190.2682   -0.0124   -0.0085 C   0  0  0  0  0  0  0  0  0  0  0  0
  190.9105   -1.2522    0.1719 C   0  0  0  0  0  0  0  0  0  0  0  0
  190.2933   -2.5192    0.3544 C   0  0  0  0  0  0  0  0  0  0  0  0
  191.2830   -3.4529    0.4944 C   0  0  0  0  0  0  0  0  0  0  0  0
  192.5343   -2.7820    0.4011 C   0  0  0  0  0  0  0  0  0  0  0  0
  192.2566   -1.4558    0.2066 N   0  0  0  0  0  0  0  0  0  0  0  0
  193.7982   -3.3523    0.4890 C   0  0  0  0  0  0  0  0  0  0  0  0
  195.0228   -2.7026    0.3971 C   0  0  0  0  0  0  0  0  0  0  0  0
  196.3036   -3.3848    0.5008 C   0  0  0  0  0  0  0  0  0  0  0  0
  197.2526   -2.4373    0.3625 C   0  0  0  0  0  0  0  0  0  0  0  0
  196.5507   -1.1775    0.1747 C   0  0  0  0  0  0  0  0  0  0  0  0
  195.2114   -1.3764    0.2016 N   0  0  0  0  0  0  0  0  0  0  0  0
  198.2744    0.0445   -0.0049 H   0  0  0  0  0  0  0  0  0  0  0  0
  198.2618    2.7021   -0.3981 H   0  0  0  0  0  0  0  0  0  0  0  0
  196.3276    4.5398   -0.6676 H   0  0  0  0  0  0  0  0  0  0  0  0
  194.5247    0.7629   -0.1118 H   0  0  0  0  0  0  0  0  0  0  0  0
  193.6648    4.4572   -0.6527 H   0  0  0  0  0  0  0  0  0  0  0  0
  191.0763    4.4875   -0.6544 H   0  0  0  0  0  0  0  0  0  0  0  0
  189.1636    2.5990   -0.3826 H   0  0  0  0  0  0  0  0  0  0  0  0
  189.2277   -2.6825    0.3746 H   0  0  0  0  0  0  0  0  0  0  0  0
  191.1681   -4.5139    0.6490 H   0  0  0  0  0  0  0  0  0  0  0  0
  192.9539   -0.7260    0.1026 H   0  0  0  0  0  0  0  0  0  0  0  0
  193.8210   -4.4258    0.6465 H   0  0  0  0  0  0  0  0  0  0  0  0
  196.4237   -4.4454    0.6581 H   0  0  0  0  0  0  0  0  0  0  0  0
  198.3259   -2.5459    0.3809 H   0  0  0  0  0  0  0  0  0  0  0  0
   77.5115    0.0373    0.0112 C   0  0  0  0  0  0  0  0  0  0  0  0
   76.2890    0.0298    0.0128 C   0  0  0  0  0  0  0  0  0  0  0  0
   78.8605    0.0420    0.0079 C   0  0  0  0  0  0  0  0  0  0  0  0
   80.0832    0.0430    0.0037 C   0  0  0  0  0  0  0  0  0  0  0  0
   91.1041    0.0202   -0.0038 C   0  0  0  0  0  0  0  0  0  0  0  0
   89.8811    0.0230   -0.0053 C   0  0  0  0  0  0  0  0  0  0  0  0
   92.4526    0.0213   -0.0033 C   0  0  0  0  0  0  0  0  0  0  0  0
   93.6756    0.0196   -0.0010 C   0  0  0  0  0  0  0  0  0  0  0  0
  104.7000    0.0049    0.0030 C   0  0  0  0  0  0  0  0  0  0  0  0
  103.4769    0.0051    0.0005 C   0  0  0  0  0  0  0  0  0  0  0  0
  106.0486    0.0078    0.0057 C   0  0  0  0  0  0  0  0  0  0  0  0
  107.2717    0.0081    0.0072 C   0  0  0  0  0  0  0  0  0  0  0  0
  118.3011   -0.0020   -0.0044 C   0  0  0  0  0  0  0  0  0  0  0  0
  117.0780   -0.0014   -0.0025 C   0  0  0  0  0  0  0  0  0  0  0  0
  119.6497   -0.0002   -0.0062 C   0  0  0  0  0  0  0  0  0  0  0  0
  120.8728   -0.0007   -0.0073 C   0  0  0  0  0  0  0  0  0  0  0  0
  131.9034   -0.0044    0.0015 C   0  0  0  0  0  0  0  0  0  0  0  0
  130.6803   -0.0045    0.0005 C   0  0  0  0  0  0  0  0  0  0  0  0
  133.2521   -0.0009    0.0022 C   0  0  0  0  0  0  0  0  0  0  0  0
  134.4752   -0.0000    0.0027 C   0  0  0  0  0  0  0  0  0  0  0  0
  145.5065   -0.0062    0.0078 C   0  0  0  0  0  0  0  0  0  0  0  0
  144.2834   -0.0006    0.0096 C   0  0  0  0  0  0  0  0  0  0  0  0
  146.8551   -0.0045    0.0075 C   0  0  0  0  0  0  0  0  0  0  0  0
  148.0782   -0.0032    0.0047 C   0  0  0  0  0  0  0  0  0  0  0  0
  159.1055    0.0061   -0.0197 C   0  0  0  0  0  0  0  0  0  0  0  0
  157.8825    0.0033   -0.0145 C   0  0  0  0  0  0  0  0  0  0  0  0
  160.4540    0.0097   -0.0239 C   0  0  0  0  0  0  0  0  0  0  0  0
  161.6771    0.0044   -0.0272 C   0  0  0  0  0  0  0  0  0  0  0  0
  172.7003   -0.0259    0.0367 C   0  0  0  0  0  0  0  0  0  0  0  0
  171.4773   -0.0209    0.0272 C   0  0  0  0  0  0  0  0  0  0  0  0
  174.0487   -0.0280    0.0406 C   0  0  0  0  0  0  0  0  0  0  0  0
  175.2717   -0.0344    0.0438 C   0  0  0  0  0  0  0  0  0  0  0  0
  186.2923   -0.0319   -0.0164 C   0  0  0  0  0  0  0  0  0  0  0  0
  185.0696   -0.0349   -0.0164 C   0  0  0  0  0  0  0  0  0  0  0  0
  187.6413   -0.0262   -0.0150 C   0  0  0  0  0  0  0  0  0  0  0  0
  188.8638   -0.0190   -0.0127 C   0  0  0  0  0  0  0  0  0  0  0  0
   81.4867    0.0443   -0.0002 C   0  0  0  0  0  0  0  0  0  0  0  0
   82.1279    1.2984   -0.0053 C   0  0  0  0  0  0  0  0  0  0  0  0
   81.5149    2.5791   -0.0084 C   0  0  0  0  0  0  0  0  0  0  0  0
   82.5091    3.5199   -0.0153 C   0  0  0  0  0  0  0  0  0  0  0  0
   83.7568    2.8382   -0.0163 C   0  0  0  0  0  0  0  0  0  0  0  0
   83.4750    1.4996   -0.0100 N   0  0  0  0  0  0  0  0  0  0  0  0
   85.0228    3.4147   -0.0221 C   0  0  0  0  0  0  0  0  0  0  0  0
   86.2523    2.7746   -0.0211 C   0  0  0  0  0  0  0  0  0  0  0  0
   87.5186    3.4855   -0.0259 C   0  0  0  0  0  0  0  0  0  0  0  0
   88.4850    2.5438   -0.0210 C   0  0  0  0  0  0  0  0  0  0  0  0
   86.4694    1.4307   -0.0141 N   0  0  0  0  0  0  0  0  0  0  0  0
   87.8050    1.2615   -0.0138 C   0  0  0  0  0  0  0  0  0  0  0  0
   88.4781    0.0216   -0.0074 C   0  0  0  0  0  0  0  0  0  0  0  0
   87.8367   -1.2326   -0.0026 C   0  0  0  0  0  0  0  0  0  0  0  0
   88.4496   -2.5135    0.0019 C   0  0  0  0  0  0  0  0  0  0  0  0
   87.4554   -3.4541    0.0040 C   0  0  0  0  0  0  0  0  0  0  0  0
   86.2076   -2.7723    0.0011 C   0  0  0  0  0  0  0  0  0  0  0  0
   86.4897   -1.4335   -0.0028 N   0  0  0  0  0  0  0  0  0  0  0  0
   84.9419   -3.3487    0.0025 C   0  0  0  0  0  0  0  0  0  0  0  0
   83.7120   -2.7084    0.0015 C   0  0  0  0  0  0  0  0  0  0  0  0
   82.4458   -3.4194    0.0047 C   0  0  0  0  0  0  0  0  0  0  0  0
   81.4794   -2.4777    0.0043 C   0  0  0  0  0  0  0  0  0  0  0  0
   82.1592   -1.1955    0.0005 C   0  0  0  0  0  0  0  0  0  0  0  0
   83.4953   -1.3648   -0.0013 N   0  0  0  0  0  0  0  0  0  0  0  0
   80.4500    2.7476   -0.0059 H   0  0  0  0  0  0  0  0  0  0  0  0
   82.3980    4.5925   -0.0193 H   0  0  0  0  0  0  0  0  0  0  0  0
   84.1661    0.7566   -0.0092 H   0  0  0  0  0  0  0  0  0  0  0  0
   85.0394    4.5002   -0.0274 H   0  0  0  0  0  0  0  0  0  0  0  0
   87.6207    4.5594   -0.0320 H   0  0  0  0  0  0  0  0  0  0  0  0
   89.5556    2.6734   -0.0222 H   0  0  0  0  0  0  0  0  0  0  0  0
   89.5145   -2.6821    0.0032 H   0  0  0  0  0  0  0  0  0  0  0  0
   87.5662   -4.5267    0.0072 H   0  0  0  0  0  0  0  0  0  0  0  0
   85.7987   -0.6904   -0.0056 H   0  0  0  0  0  0  0  0  0  0  0  0
   84.9251   -4.4341    0.0053 H   0  0  0  0  0  0  0  0  0  0  0  0
   82.3438   -4.4933    0.0072 H   0  0  0  0  0  0  0  0  0  0  0  0
   80.4088   -2.6074    0.0063 H   0  0  0  0  0  0  0  0  0  0  0  0
   95.0786    0.0217    0.0005 C   0  0  0  0  0  0  0  0  0  0  0  0
   95.7196    1.2761   -0.0131 C   0  0  0  0  0  0  0  0  0  0  0  0
   95.1068    2.5568   -0.0272 C   0  0  0  0  0  0  0  0  0  0  0  0
   96.1011    3.4973   -0.0374 C   0  0  0  0  0  0  0  0  0  0  0  0
   97.3488    2.8156   -0.0300 C   0  0  0  0  0  0  0  0  0  0  0  0
   97.0667    1.4770   -0.0152 N   0  0  0  0  0  0  0  0  0  0  0  0
   98.6146    3.3922   -0.0368 C   0  0  0  0  0  0  0  0  0  0  0  0
   99.8449    2.7532   -0.0305 C   0  0  0  0  0  0  0  0  0  0  0  0
  101.1103    3.4656   -0.0394 C   0  0  0  0  0  0  0  0  0  0  0  0
  102.0779    2.5251   -0.0292 C   0  0  0  0  0  0  0  0  0  0  0  0
  100.0636    1.4097   -0.0154 N   0  0  0  0  0  0  0  0  0  0  0  0
  101.3996    1.2422   -0.0140 C   0  0  0  0  0  0  0  0  0  0  0  0
  102.0738    0.0029    0.0004 C   0  0  0  0  0  0  0  0  0  0  0  0
  101.4326   -1.2514    0.0151 C   0  0  0  0  0  0  0  0  0  0  0  0
  102.0453   -2.5322    0.0301 C   0  0  0  0  0  0  0  0  0  0  0  0
  101.0510   -3.4727    0.0417 C   0  0  0  0  0  0  0  0  0  0  0  0
   99.8033   -2.7909    0.0339 C   0  0  0  0  0  0  0  0  0  0  0  0
  100.0855   -1.4523    0.0177 N   0  0  0  0  0  0  0  0  0  0  0  0
   98.5376   -3.3676    0.0413 C   0  0  0  0  0  0  0  0  0  0  0  0
   97.3071   -2.7287    0.0336 C   0  0  0  0  0  0  0  0  0  0  0  0
   96.0417   -3.4409    0.0419 C   0  0  0  0  0  0  0  0  0  0  0  0
   95.0742   -2.5004    0.0300 C   0  0  0  0  0  0  0  0  0  0  0  0
   95.7527   -1.2175    0.0150 C   0  0  0  0  0  0  0  0  0  0  0  0
   97.0887   -1.3853    0.0174 N   0  0  0  0  0  0  0  0  0  0  0  0
   94.0418    2.7255   -0.0291 H   0  0  0  0  0  0  0  0  0  0  0  0
   95.9902    4.5699   -0.0491 H   0  0  0  0  0  0  0  0  0  0  0  0
   97.7575    0.7338   -0.0070 H   0  0  0  0  0  0  0  0  0  0  0  0
   98.6307    4.4777   -0.0489 H   0  0  0  0  0  0  0  0  0  0  0  0
  101.2110    4.5396   -0.0518 H   0  0  0  0  0  0  0  0  0  0  0  0
  103.1484    2.6561   -0.0314 H   0  0  0  0  0  0  0  0  0  0  0  0
  103.1102   -2.7009    0.0317 H   0  0  0  0  0  0  0  0  0  0  0  0
  101.1618   -4.5452    0.0545 H   0  0  0  0  0  0  0  0  0  0  0  0
   99.3946   -0.7091    0.0090 H   0  0  0  0  0  0  0  0  0  0  0  0
   98.5215   -4.4530    0.0546 H   0  0  0  0  0  0  0  0  0  0  0  0
   95.9408   -4.5149    0.0549 H   0  0  0  0  0  0  0  0  0  0  0  0
   94.0037   -2.6312    0.0312 H   0  0  0  0  0  0  0  0  0  0  0  0
  108.6748    0.0110    0.0080 C   0  0  0  0  0  0  0  0  0  0  0  0
  109.3156    1.2655   -0.0093 C   0  0  0  0  0  0  0  0  0  0  0  0
  108.7033    2.5464   -0.0258 C   0  0  0  0  0  0  0  0  0  0  0  0
  109.6980    3.4865   -0.0383 C   0  0  0  0  0  0  0  0  0  0  0  0
  110.9455    2.8043   -0.0300 C   0  0  0  0  0  0  0  0  0  0  0  0
  110.6628    1.4659   -0.0122 N   0  0  0  0  0  0  0  0  0  0  0  0
  112.2113    3.3812   -0.0388 C   0  0  0  0  0  0  0  0  0  0  0  0
  113.4424    2.7436   -0.0326 C   0  0  0  0  0  0  0  0  0  0  0  0
  114.7068    3.4578   -0.0443 C   0  0  0  0  0  0  0  0  0  0  0  0
  115.6758    2.5187   -0.0340 C   0  0  0  0  0  0  0  0  0  0  0  0
  113.6631    1.4006   -0.0154 N   0  0  0  0  0  0  0  0  0  0  0  0
  114.9994    1.2348   -0.0157 C   0  0  0  0  0  0  0  0  0  0  0  0
  115.6748   -0.0038   -0.0002 C   0  0  0  0  0  0  0  0  0  0  0  0
  115.0338   -1.2582    0.0188 C   0  0  0  0  0  0  0  0  0  0  0  0
  115.6461   -2.5390    0.0367 C   0  0  0  0  0  0  0  0  0  0  0  0
  114.6514   -3.4791    0.0528 C   0  0  0  0  0  0  0  0  0  0  0  0
  113.4039   -2.7969    0.0450 C   0  0  0  0  0  0  0  0  0  0  0  0
  113.6866   -1.4585    0.0243 N   0  0  0  0  0  0  0  0  0  0  0  0
  112.1382   -3.3738    0.0564 C   0  0  0  0  0  0  0  0  0  0  0  0
  110.9071   -2.7363    0.0486 C   0  0  0  0  0  0  0  0  0  0  0  0
  109.6426   -3.4503    0.0612 C   0  0  0  0  0  0  0  0  0  0  0  0
  108.6737   -2.5112    0.0472 C   0  0  0  0  0  0  0  0  0  0  0  0
  109.3503   -1.2275    0.0265 C   0  0  0  0  0  0  0  0  0  0  0  0
  110.6865   -1.3933    0.0280 N   0  0  0  0  0  0  0  0  0  0  0  0
  107.6384    2.7155   -0.0277 H   0  0  0  0  0  0  0  0  0  0  0  0
  109.5875    4.5591   -0.0522 H   0  0  0  0  0  0  0  0  0  0  0  0
  111.3528    0.7218   -0.0029 H   0  0  0  0  0  0  0  0  0  0  0  0
  112.2265    4.4666   -0.0529 H   0  0  0  0  0  0  0  0  0  0  0  0
  114.8060    4.5319   -0.0585 H   0  0  0  0  0  0  0  0  0  0  0  0
  116.7461    2.6512   -0.0378 H   0  0  0  0  0  0  0  0  0  0  0  0
  116.7110   -2.7082    0.0372 H   0  0  0  0  0  0  0  0  0  0  0  0
  114.7619   -4.5516    0.0687 H   0  0  0  0  0  0  0  0  0  0  0  0
  112.9967   -0.7144    0.0147 H   0  0  0  0  0  0  0  0  0  0  0  0
  112.1229   -4.4592    0.0732 H   0  0  0  0  0  0  0  0  0  0  0  0
  109.5434   -4.5244    0.0783 H   0  0  0  0  0  0  0  0  0  0  0  0
  107.6034   -2.6437    0.0503 H   0  0  0  0  0  0  0  0  0  0  0  0
  122.2760    0.0027   -0.0075 C   0  0  0  0  0  0  0  0  0  0  0  0
  122.9164    1.2575   -0.0177 C   0  0  0  0  0  0  0  0  0  0  0  0
  122.3035    2.5382   -0.0298 C   0  0  0  0  0  0  0  0  0  0  0  0
  123.2978    3.4788   -0.0373 C   0  0  0  0  0  0  0  0  0  0  0  0
  124.5457    2.7971   -0.0298 C   0  0  0  0  0  0  0  0  0  0  0  0
  124.2635    1.4586   -0.0182 N   0  0  0  0  0  0  0  0  0  0  0  0
  125.8112    3.3746   -0.0331 C   0  0  0  0  0  0  0  0  0  0  0  0
  127.0426    2.7378   -0.0257 C   0  0  0  0  0  0  0  0  0  0  0  0
  128.3066    3.4529   -0.0298 C   0  0  0  0  0  0  0  0  0  0  0  0
  129.2762    2.5146   -0.0206 C   0  0  0  0  0  0  0  0  0  0  0  0
  127.2643    1.3949   -0.0142 N   0  0  0  0  0  0  0  0  0  0  0  0
  128.6007    1.2301   -0.0111 C   0  0  0  0  0  0  0  0  0  0  0  0
  129.2771   -0.0081   -0.0009 C   0  0  0  0  0  0  0  0  0  0  0  0
  128.6367   -1.2629    0.0076 C   0  0  0  0  0  0  0  0  0  0  0  0
  129.2495   -2.5436    0.0168 C   0  0  0  0  0  0  0  0  0  0  0  0
  128.2552   -3.4842    0.0223 C   0  0  0  0  0  0  0  0  0  0  0  0
  127.0074   -2.8025    0.0167 C   0  0  0  0  0  0  0  0  0  0  0  0
  127.2896   -1.4639    0.0078 N   0  0  0  0  0  0  0  0  0  0  0  0
  125.7419   -3.3801    0.0194 C   0  0  0  0  0  0  0  0  0  0  0  0
  124.5104   -2.7433    0.0141 C   0  0  0  0  0  0  0  0  0  0  0  0
  123.2464   -3.4583    0.0181 C   0  0  0  0  0  0  0  0  0  0  0  0
  122.2768   -2.5199    0.0111 C   0  0  0  0  0  0  0  0  0  0  0  0
  122.9523   -1.2355    0.0025 C   0  0  0  0  0  0  0  0  0  0  0  0
  124.2887   -1.4003    0.0047 N   0  0  0  0  0  0  0  0  0  0  0  0
  121.2386    2.7069   -0.0324 H   0  0  0  0  0  0  0  0  0  0  0  0
  123.1868    4.5513   -0.0472 H   0  0  0  0  0  0  0  0  0  0  0  0
  124.9537    0.7147   -0.0109 H   0  0  0  0  0  0  0  0  0  0  0  0
  125.8259    4.4601   -0.0427 H   0  0  0  0  0  0  0  0  0  0  0  0
  128.4050    4.5272   -0.0386 H   0  0  0  0  0  0  0  0  0  0  0  0
  130.3464    2.6479   -0.0201 H   0  0  0  0  0  0  0  0  0  0  0  0
  130.3144   -2.7124    0.0187 H   0  0  0  0  0  0  0  0  0  0  0  0
  128.3661   -4.5568    0.0295 H   0  0  0  0  0  0  0  0  0  0  0  0
  126.5993   -0.7200    0.0023 H   0  0  0  0  0  0  0  0  0  0  0  0
  125.7272   -4.4656    0.0267 H   0  0  0  0  0  0  0  0  0  0  0  0
  123.1479   -4.5326    0.0252 H   0  0  0  0  0  0  0  0  0  0  0  0
  121.2066   -2.6532    0.0111 H   0  0  0  0  0  0  0  0  0  0  0  0
  135.8784    0.0039    0.0035 C   0  0  0  0  0  0  0  0  0  0  0  0
  136.5185    1.2589   -0.0026 C   0  0  0  0  0  0  0  0  0  0  0  0
  135.9053    2.5395   -0.0081 C   0  0  0  0  0  0  0  0  0  0  0  0
  136.8994    3.4803   -0.0123 C   0  0  0  0  0  0  0  0  0  0  0  0
  138.1475    2.7990   -0.0094 C   0  0  0  0  0  0  0  0  0  0  0  0
  137.8656    1.4603   -0.0035 N   0  0  0  0  0  0  0  0  0  0  0  0
  139.4127    3.3771   -0.0116 C   0  0  0  0  0  0  0  0  0  0  0  0
  140.6446    2.7410   -0.0073 C   0  0  0  0  0  0  0  0  0  0  0  0
  141.9081    3.4569   -0.0092 C   0  0  0  0  0  0  0  0  0  0  0  0
  142.8783    2.5190   -0.0034 C   0  0  0  0  0  0  0  0  0  0  0  0
  140.8670    1.3982   -0.0003 N   0  0  0  0  0  0  0  0  0  0  0  0
  142.2036    1.2342    0.0021 C   0  0  0  0  0  0  0  0  0  0  0  0
  142.8802   -0.0038    0.0098 C   0  0  0  0  0  0  0  0  0  0  0  0
  142.2400   -1.2587    0.0175 C   0  0  0  0  0  0  0  0  0  0  0  0
  142.8533   -2.5392    0.0271 C   0  0  0  0  0  0  0  0  0  0  0  0
  141.8593   -3.4801    0.0320 C   0  0  0  0  0  0  0  0  0  0  0  0
  140.6112   -2.7989    0.0254 C   0  0  0  0  0  0  0  0  0  0  0  0
  140.8929   -1.4602    0.0169 N   0  0  0  0  0  0  0  0  0  0  0  0
  139.3460   -3.3770    0.0273 C   0  0  0  0  0  0  0  0  0  0  0  0
  138.1141   -2.7410    0.0219 C   0  0  0  0  0  0  0  0  0  0  0  0
  136.8505   -3.4567    0.0258 C   0  0  0  0  0  0  0  0  0  0  0  0
  135.8804   -2.5188    0.0191 C   0  0  0  0  0  0  0  0  0  0  0  0
  136.5553   -1.2340    0.0111 C   0  0  0  0  0  0  0  0  0  0  0  0
  137.8917   -1.3981    0.0130 N   0  0  0  0  0  0  0  0  0  0  0  0
  134.8404    2.7080   -0.0085 H   0  0  0  0  0  0  0  0  0  0  0  0
  136.7882    4.5529   -0.0167 H   0  0  0  0  0  0  0  0  0  0  0  0
  138.5559    0.7165   -0.0003 H   0  0  0  0  0  0  0  0  0  0  0  0
  139.4268    4.4626   -0.0169 H   0  0  0  0  0  0  0  0  0  0  0  0
  142.0059    4.5312   -0.0142 H   0  0  0  0  0  0  0  0  0  0  0  0
  143.9485    2.6530   -0.0024 H   0  0  0  0  0  0  0  0  0  0  0  0
  143.9183   -2.7075    0.0302 H   0  0  0  0  0  0  0  0  0  0  0  0
  141.9706   -4.5527    0.0396 H   0  0  0  0  0  0  0  0  0  0  0  0
  140.2025   -0.7165    0.0110 H   0  0  0  0  0  0  0  0  0  0  0  0
  139.3319   -4.4626    0.0343 H   0  0  0  0  0  0  0  0  0  0  0  0
  136.7527   -4.5310    0.0329 H   0  0  0  0  0  0  0  0  0  0  0  0
  134.8103   -2.6527    0.0195 H   0  0  0  0  0  0  0  0  0  0  0  0
  149.4814    0.0008    0.0029 C   0  0  0  0  0  0  0  0  0  0  0  0
  150.1203    1.2563   -0.0185 C   0  0  0  0  0  0  0  0  0  0  0  0
  149.5052    2.5358   -0.0374 C   0  0  0  0  0  0  0  0  0  0  0  0
  150.4978    3.4780   -0.0535 C   0  0  0  0  0  0  0  0  0  0  0  0
  151.7468    2.7986   -0.0449 C   0  0  0  0  0  0  0  0  0  0  0  0
  151.4670    1.4596   -0.0238 N   0  0  0  0  0  0  0  0  0  0  0  0
  153.0112    3.3782   -0.0553 C   0  0  0  0  0  0  0  0  0  0  0  0
  154.2434    2.7428   -0.0473 C   0  0  0  0  0  0  0  0  0  0  0  0
  155.5069    3.4586   -0.0599 C   0  0  0  0  0  0  0  0  0  0  0  0
  156.4771    2.5208   -0.0482 C   0  0  0  0  0  0  0  0  0  0  0  0
  154.4658    1.4000   -0.0279 N   0  0  0  0  0  0  0  0  0  0  0  0
  155.8023    1.2361   -0.0280 C   0  0  0  0  0  0  0  0  0  0  0  0
  156.4794   -0.0014   -0.0094 C   0  0  0  0  0  0  0  0  0  0  0  0
  155.8409   -1.2569    0.0158 C   0  0  0  0  0  0  0  0  0  0  0  0
  156.4561   -2.5363    0.0406 C   0  0  0  0  0  0  0  0  0  0  0  0
  155.4636   -3.4785    0.0614 C   0  0  0  0  0  0  0  0  0  0  0  0
  154.2146   -2.7993    0.0494 C   0  0  0  0  0  0  0  0  0  0  0  0
  154.4942   -1.4604    0.0222 N   0  0  0  0  0  0  0  0  0  0  0  0
  152.9500   -3.3786    0.0618 C   0  0  0  0  0  0  0  0  0  0  0  0
  151.7179   -2.7431    0.0505 C   0  0  0  0  0  0  0  0  0  0  0  0
  150.4545   -3.4590    0.0651 C   0  0  0  0  0  0  0  0  0  0  0  0
  149.4842   -2.5215    0.0485 C   0  0  0  0  0  0  0  0  0  0  0  0
  150.1586   -1.2367    0.0239 C   0  0  0  0  0  0  0  0  0  0  0  0
  151.4952   -1.4005    0.0255 N   0  0  0  0  0  0  0  0  0  0  0  0
  148.4400    2.7027   -0.0382 H   0  0  0  0  0  0  0  0  0  0  0  0
  150.3851    4.5503   -0.0699 H   0  0  0  0  0  0  0  0  0  0  0  0
  152.1587    0.7172   -0.0133 H   0  0  0  0  0  0  0  0  0  0  0  0
  153.0244    4.4636   -0.0717 H   0  0  0  0  0  0  0  0  0  0  0  0
  155.6047    4.5328   -0.0751 H   0  0  0  0  0  0  0  0  0  0  0  0
  157.5472    2.6547   -0.0519 H   0  0  0  0  0  0  0  0  0  0  0  0
  157.5214   -2.7029    0.0426 H   0  0  0  0  0  0  0  0  0  0  0  0
  155.5767   -4.5507    0.0834 H   0  0  0  0  0  0  0  0  0  0  0  0
  153.8020   -0.7184    0.0086 H   0  0  0  0  0  0  0  0  0  0  0  0
  152.9366   -4.4640    0.0828 H   0  0  0  0  0  0  0  0  0  0  0  0
  150.3569   -4.5332    0.0854 H   0  0  0  0  0  0  0  0  0  0  0  0
  148.4140   -2.6556    0.0522 H   0  0  0  0  0  0  0  0  0  0  0  0
  163.0802    0.0054   -0.0274 C   0  0  0  0  0  0  0  0  0  0  0  0
  163.7225    1.2590   -0.0485 C   0  0  0  0  0  0  0  0  0  0  0  0
  163.1110    2.5402   -0.0748 C   0  0  0  0  0  0  0  0  0  0  0  0
  164.1063    3.4796   -0.0905 C   0  0  0  0  0  0  0  0  0  0  0  0
  165.3533    2.7967   -0.0732 C   0  0  0  0  0  0  0  0  0  0  0  0
  165.0698    1.4585   -0.0484 N   0  0  0  0  0  0  0  0  0  0  0  0
  166.6197    3.3721   -0.0782 C   0  0  0  0  0  0  0  0  0  0  0  0
  167.8493    2.7320   -0.0570 C   0  0  0  0  0  0  0  0  0  0  0  0
  169.1156    3.4428   -0.0604 C   0  0  0  0  0  0  0  0  0  0  0  0
  170.0819    2.5013   -0.0331 C   0  0  0  0  0  0  0  0  0  0  0  0
  168.0662    1.3885   -0.0287 N   0  0  0  0  0  0  0  0  0  0  0  0
  169.4019    1.2194   -0.0139 C   0  0  0  0  0  0  0  0  0  0  0  0
  170.0743   -0.0205    0.0157 C   0  0  0  0  0  0  0  0  0  0  0  0
  169.4319   -1.2741    0.0321 C   0  0  0  0  0  0  0  0  0  0  0  0
  170.0434   -2.5552    0.0591 C   0  0  0  0  0  0  0  0  0  0  0  0
  169.0483   -3.4949    0.0646 C   0  0  0  0  0  0  0  0  0  0  0  0
  167.8013   -2.8122    0.0415 C   0  0  0  0  0  0  0  0  0  0  0  0
  168.0847   -1.4739    0.0225 N   0  0  0  0  0  0  0  0  0  0  0  0
  166.5350   -3.3878    0.0400 C   0  0  0  0  0  0  0  0  0  0  0  0
  165.3055   -2.7475    0.0223 C   0  0  0  0  0  0  0  0  0  0  0  0
  164.0392   -3.4583    0.0271 C   0  0  0  0  0  0  0  0  0  0  0  0
  163.0729   -2.5166    0.0101 C   0  0  0  0  0  0  0  0  0  0  0  0
  163.7529   -1.2345   -0.0063 C   0  0  0  0  0  0  0  0  0  0  0  0
  165.0886   -1.4038    0.0011 N   0  0  0  0  0  0  0  0  0  0  0  0
  162.0463    2.7100   -0.0811 H   0  0  0  0  0  0  0  0  0  0  0  0
  163.9965    4.5522   -0.1117 H   0  0  0  0  0  0  0  0  0  0  0  0
  165.7599    0.7148   -0.0320 H   0  0  0  0  0  0  0  0  0  0  0  0
  166.6369    4.4574   -0.0997 H   0  0  0  0  0  0  0  0  0  0  0  0
  169.2178    4.5165   -0.0807 H   0  0  0  0  0  0  0  0  0  0  0  0
  171.1525    2.6311   -0.0260 H   0  0  0  0  0  0  0  0  0  0  0  0
  171.1081   -2.7247    0.0723 H   0  0  0  0  0  0  0  0  0  0  0  0
  169.1581   -4.5675    0.0832 H   0  0  0  0  0  0  0  0  0  0  0  0
  167.3946   -0.7302    0.0035 H   0  0  0  0  0  0  0  0  0  0  0  0
  166.5179   -4.4731    0.0565 H   0  0  0  0  0  0  0  0  0  0  0  0
  163.9370   -4.5321    0.0423 H   0  0  0  0  0  0  0  0  0  0  0  0
  162.0022   -2.6462    0.0079 H   0  0  0  0  0  0  0  0  0  0  0  0
  176.6747   -0.0314    0.0385 C   0  0  0  0  0  0  0  0  0  0  0  0
  177.3132    1.2229   -0.0208 C   0  0  0  0  0  0  0  0  0  0  0  0
  176.6973    2.5012   -0.0727 C   0  0  0  0  0  0  0  0  0  0  0  0
  177.6891    3.4429   -0.1239 C   0  0  0  0  0  0  0  0  0  0  0  0
  178.9385    2.7642   -0.1049 C   0  0  0  0  0  0  0  0  0  0  0  0
  178.6596    1.4263   -0.0414 N   0  0  0  0  0  0  0  0  0  0  0  0
  180.2028    3.3421   -0.1453 C   0  0  0  0  0  0  0  0  0  0  0  0
  181.4340    2.7045   -0.1292 C   0  0  0  0  0  0  0  0  0  0  0  0
  182.6985    3.4170   -0.1766 C   0  0  0  0  0  0  0  0  0  0  0  0
  183.6670    2.4783   -0.1400 C   0  0  0  0  0  0  0  0  0  0  0  0
  181.6538    1.3629   -0.0666 N   0  0  0  0  0  0  0  0  0  0  0  0
  182.9902    1.1963   -0.0705 C   0  0  0  0  0  0  0  0  0  0  0  0
  183.6661   -0.0402   -0.0122 C   0  0  0  0  0  0  0  0  0  0  0  0
  183.0284   -1.2944    0.0528 C   0  0  0  0  0  0  0  0  0  0  0  0
  183.6441   -2.5725    0.1097 C   0  0  0  0  0  0  0  0  0  0  0  0
  182.6520   -3.5142    0.1602 C   0  0  0  0  0  0  0  0  0  0  0  0
  181.4028   -2.8357    0.1356 C   0  0  0  0  0  0  0  0  0  0  0  0
  181.6817   -1.4981    0.0702 N   0  0  0  0  0  0  0  0  0  0  0  0
  180.1381   -3.4139    0.1711 C   0  0  0  0  0  0  0  0  0  0  0  0
  178.9071   -2.7769    0.1493 C   0  0  0  0  0  0  0  0  0  0  0  0
  177.6425   -3.4898    0.1898 C   0  0  0  0  0  0  0  0  0  0  0  0
  176.6739   -2.5511    0.1524 C   0  0  0  0  0  0  0  0  0  0  0  0
  177.3507   -1.2687    0.0897 C   0  0  0  0  0  0  0  0  0  0  0  0
  178.6868   -1.4349    0.0892 N   0  0  0  0  0  0  0  0  0  0  0  0
  175.6320    2.6676   -0.0707 H   0  0  0  0  0  0  0  0  0  0  0  0
  177.5757    4.5142   -0.1711 H   0  0  0  0  0  0  0  0  0  0  0  0
  179.3527    0.6856   -0.0147 H   0  0  0  0  0  0  0  0  0  0  0  0
  180.2174    4.4264   -0.1958 H   0  0  0  0  0  0  0  0  0  0  0  0
  182.7978    4.4899   -0.2302 H   0  0  0  0  0  0  0  0  0  0  0  0
  184.7373    2.6098   -0.1570 H   0  0  0  0  0  0  0  0  0  0  0  0
  184.7094   -2.7390    0.1108 H   0  0  0  0  0  0  0  0  0  0  0  0
  182.7656   -4.5854    0.2101 H   0  0  0  0  0  0  0  0  0  0  0  0
  180.9888   -0.7574    0.0395 H   0  0  0  0  0  0  0  0  0  0  0  0
  180.1239   -4.4982    0.2222 H   0  0  0  0  0  0  0  0  0  0  0  0
  177.5430   -4.5628    0.2396 H   0  0  0  0  0  0  0  0  0  0  0  0
  175.6035   -2.6828    0.1648 H   0  0  0  0  0  0  0  0  0  0  0  0
  1  2  4  0  0  0  0
  2  3  4  0  0  0  0
  3  4  2  0  0  0  0
  4  5  4  0  0  0  0
  2  6  4  0  0  0  0
  5  6  4  0  0  0  0
  5  7  4  0  0  0  0
  7  8  4  0  0  0  0
  8  9  1  0  0  0  0
  9 10  2  0  0  0  0
  8 11  4  0  0  0  0
 10 12  1  0  0  0  0
 11 12  4  0  0  0  0
 12 13  4  0  0  0  0
 13 14  4  0  0  0  0
 14 15  4  0  0  0  0
 15 16  2  0  0  0  0
 16 17  4  0  0  0  0
 14 18  4  0  0  0  0
 17 18  4  0  0  0  0
 17 19  4  0  0  0  0
 19 20  4  0  0  0  0
 20 21  1  0  0  0  0
 21 22  2  0  0  0  0
  1 23  4  0  0  0  0
 22 23  1  0  0  0  0
 20 24  4  0  0  0  0
 23 24  4  0  0  0  0
  1 25  1  0  0  0  0
  3 26  1  0  0  0  0
  4 27  1  0  0  0  0
  6 28  1  0  0  0  0
  7 29  1  0  0  0  0
  9 30  1  0  0  0  0
 10 31  1  0  0  0  0
 15 32  1  0  0  0  0
 16 33  1  0  0  0  0
 18 34  1  0  0  0  0
 19 35  1  0  0  0  0
 21 36  1  0  0  0  0
 22 37  1  0  0  0  0
 38 39  4  0  0  0  0
 39 40  4  0  0  0  0
 40 41  2  0  0  0  0
 41 42  4  0  0  0  0
 39 43  4  0  0  0  0
 42 43  4  0  0  0  0
 42 44  4  0  0  0  0
 44 45  4  0  0  0  0
 45 46  1  0  0  0  0
 46 47  2  0  0  0  0
 45 48  4  0  0  0  0
 47 49  1  0  0  0  0
 48 49  4  0  0  0  0
 49 50  4  0  0  0  0
 50 51  4  0  0  0  0
 51 52  4  0  0  0  0
 52 53  2  0  0  0  0
 53 54  4  0  0  0  0
 51 55  4  0  0  0  0
 54 55  4  0  0  0  0
 54 56  4  0  0  0  0
 56 57  4  0  0  0  0
 57 58  1  0  0  0  0
 58 59  2  0  0  0  0
 38 60  4  0  0  0  0
 59 60  1  0  0  0  0
 57 61  4  0  0  0  0
 60 61  4  0  0  0  0
 38 62  1  0  0  0  0
 40 63  1  0  0  0  0
 41 64  1  0  0  0  0
 43 65  1  0  0  0  0
 44 66  1  0  0  0  0
 46 67  1  0  0  0  0
 47 68  1  0  0  0  0
 52 69  1  0  0  0  0
 53 70  1  0  0  0  0
 55 71  1  0  0  0  0
 56 72  1  0  0  0  0
 58 73  1  0  0  0  0
 59 74  1  0  0  0  0
 13 76  4  0  0  0  0
 75 76  3  0  0  0  0
 75 77  4  0  0  0  0
 77 78  3  0  0  0  0
 79 80  3  0  0  0  0
 79 81  4  0  0  0  0
 81 82  3  0  0  0  0
 83 84  3  0  0  0  0
 83 85  4  0  0  0  0
 85 86  3  0  0  0  0
 87 88  3  0  0  0  0
 87 89  4  0  0  0  0
 89 90  3  0  0  0  0
 91 92  3  0  0  0  0
 91 93  4  0  0  0  0
 93 94  3  0  0  0  0
 95 96  3  0  0  0  0
 95 97  4  0  0  0  0
 97 98  3  0  0  0  0
 99100  3  0  0  0  0
 99101  4  0  0  0  0
101102  3  0  0  0  0
103104  3  0  0  0  0
103105  4  0  0  0  0
105106  3  0  0  0  0
107108  3  0  0  0  0
107109  4  0  0  0  0
 50110  4  0  0  0  0
109110  3  0  0  0  0
 78111  4  0  0  0  0
111112  4  0  0  0  0
112113  4  0  0  0  0
113114  2  0  0  0  0
114115  4  0  0  0  0
112116  4  0  0  0  0
115116  4  0  0  0  0
115117  4  0  0  0  0
117118  4  0  0  0  0
118119  1  0  0  0  0
119120  2  0  0  0  0
118121  4  0  0  0  0
120122  1  0  0  0  0
121122  4  0  0  0  0
 80123  4  0  0  0  0
122123  4  0  0  0  0
123124  4  0  0  0  0
124125  4  0  0  0  0
125126  2  0  0  0  0
126127  4  0  0  0  0
124128  4  0  0  0  0
127128  4  0  0  0  0
127129  4  0  0  0  0
129130  4  0  0  0  0
130131  1  0  0  0  0
131132  2  0  0  0  0
111133  4  0  0  0  0
132133  1  0  0  0  0
130134  4  0  0  0  0
133134  4  0  0  0  0
113135  1  0  0  0  0
114136  1  0  0  0  0
116137  1  0  0  0  0
117138  1  0  0  0  0
119139  1  0  0  0  0
120140  1  0  0  0  0
125141  1  0  0  0  0
126142  1  0  0  0  0
128143  1  0  0  0  0
129144  1  0  0  0  0
131145  1  0  0  0  0
132146  1  0  0  0  0
 82147  4  0  0  0  0
147148  4  0  0  0  0
148149  4  0  0  0  0
149150  2  0  0  0  0
150151  4  0  0  0  0
148152  4  0  0  0  0
151152  4  0  0  0  0
151153  4  0  0  0  0
153154  4  0  0  0  0
154155  1  0  0  0  0
155156  2  0  0  0  0
154157  4  0  0  0  0
156158  1  0  0  0  0
157158  4  0  0  0  0
 84159  4  0  0  0  0
158159  4  0  0  0  0
159160  4  0  0  0  0
160161  4  0  0  0  0
161162  2  0  0  0  0
162163  4  0  0  0  0
160164  4  0  0  0  0
163164  4  0  0  0  0
163165  4  0  0  0  0
165166  4  0  0  0  0
166167  1  0  0  0  0
167168  2  0  0  0  0
147169  4  0  0  0  0
168169  1  0  0  0  0
166170  4  0  0  0  0
169170  4  0  0  0  0
149171  1  0  0  0  0
150172  1  0  0  0  0
152173  1  0  0  0  0
153174  1  0  0  0  0
155175  1  0  0  0  0
156176  1  0  0  0  0
161177  1  0  0  0  0
162178  1  0  0  0  0
164179  1  0  0  0  0
165180  1  0  0  0  0
167181  1  0  0  0  0
168182  1  0  0  0  0
 86183  4  0  0  0  0
183184  4  0  0  0  0
184185  4  0  0  0  0
185186  2  0  0  0  0
186187  4  0  0  0  0
184188  4  0  0  0  0
187188  4  0  0  0  0
187189  4  0  0  0  0
189190  4  0  0  0  0
190191  1  0  0  0  0
191192  2  0  0  0  0
190193  4  0  0  0  0
192194  1  0  0  0  0
193194  4  0  0  0  0
 88195  4  0  0  0  0
194195  4  0  0  0  0
195196  4  0  0  0  0
196197  4  0  0  0  0
197198  2  0  0  0  0
198199  4  0  0  0  0
196200  4  0  0  0  0
199200  4  0  0  0  0
199201  4  0  0  0  0
201202  4  0  0  0  0
202203  1  0  0  0  0
203204  2  0  0  0  0
183205  4  0  0  0  0
204205  1  0  0  0  0
202206  4  0  0  0  0
205206  4  0  0  0  0
185207  1  0  0  0  0
186208  1  0  0  0  0
188209  1  0  0  0  0
189210  1  0  0  0  0
191211  1  0  0  0  0
192212  1  0  0  0  0
197213  1  0  0  0  0
198214  1  0  0  0  0
200215  1  0  0  0  0
201216  1  0  0  0  0
203217  1  0  0  0  0
204218  1  0  0  0  0
 90219  4  0  0  0  0
219220  4  0  0  0  0
220221  4  0  0  0  0
221222  2  0  0  0  0
222223  4  0  0  0  0
220224  4  0  0  0  0
223224  4  0  0  0  0
223225  4  0  0  0  0
225226  4  0  0  0  0
226227  1  0  0  0  0
227228  2  0  0  0  0
226229  4  0  0  0  0
228230  1  0  0  0  0
229230  4  0  0  0  0
 92231  4  0  0  0  0
230231  4  0  0  0  0
231232  4  0  0  0  0
232233  4  0  0  0  0
233234  2  0  0  0  0
234235  4  0  0  0  0
232236  4  0  0  0  0
235236  4  0  0  0  0
235237  4  0  0  0  0
237238  4  0  0  0  0
238239  1  0  0  0  0
239240  2  0  0  0  0
219241  4  0  0  0  0
240241  1  0  0  0  0
238242  4  0  0  0  0
241242  4  0  0  0  0
221243  1  0  0  0  0
222244  1  0  0  0  0
224245  1  0  0  0  0
225246  1  0  0  0  0
227247  1  0  0  0  0
228248  1  0  0  0  0
233249  1  0  0  0  0
234250  1  0  0  0  0
236251  1  0  0  0  0
237252  1  0  0  0  0
239253  1  0  0  0  0
240254  1  0  0  0  0
 94255  4  0  0  0  0
255256  4  0  0  0  0
256257  4  0  0  0  0
257258  2  0  0  0  0
258259  4  0  0  0  0
256260  4  0  0  0  0
259260  4  0  0  0  0
259261  4  0  0  0  0
261262  4  0  0  0  0
262263  1  0  0  0  0
263264  2  0  0  0  0
262265  4  0  0  0  0
264266  1  0  0  0  0
265266  4  0  0  0  0
 96267  4  0  0  0  0
266267  4  0  0  0  0
267268  4  0  0  0  0
268269  4  0  0  0  0
269270  2  0  0  0  0
270271  4  0  0  0  0
268272  4  0  0  0  0
271272  4  0  0  0  0
271273  4  0  0  0  0
273274  4  0  0  0  0
274275  1  0  0  0  0
275276  2  0  0  0  0
255277  4  0  0  0  0
276277  1  0  0  0  0
274278  4  0  0  0  0
277278  4  0  0  0  0
257279  1  0  0  0  0
258280  1  0  0  0  0
260281  1  0  0  0  0
261282  1  0  0  0  0
263283  1  0  0  0  0
264284  1  0  0  0  0
269285  1  0  0  0  0
270286  1  0  0  0  0
272287  1  0  0  0  0
273288  1  0  0  0  0
275289  1  0  0  0  0
276290  1  0  0  0  0
 98291  4  0  0  0  0
291292  4  0  0  0  0
292293  4  0  0  0  0
293294  2  0  0  0  0
294295  4  0  0  0  0
292296  4  0  0  0  0
295296  4  0  0  0  0
295297  4  0  0  0  0
297298  4  0  0  0  0
298299  1  0  0  0  0
299300  2  0  0  0  0
298301  4  0  0  0  0
300302  1  0  0  0  0
301302  4  0  0  0  0
100303  4  0  0  0  0
302303  4  0  0  0  0
303304  4  0  0  0  0
304305  4  0  0  0  0
305306  2  0  0  0  0
306307  4  0  0  0  0
304308  4  0  0  0  0
307308  4  0  0  0  0
307309  4  0  0  0  0
309310  4  0  0  0  0
310311  1  0  0  0  0
311312  2  0  0  0  0
291313  4  0  0  0  0
312313  1  0  0  0  0
310314  4  0  0  0  0
313314  4  0  0  0  0
293315  1  0  0  0  0
294316  1  0  0  0  0
296317  1  0  0  0  0
297318  1  0  0  0  0
299319  1  0  0  0  0
300320  1  0  0  0  0
305321  1  0  0  0  0
306322  1  0  0  0  0
308323  1  0  0  0  0
309324  1  0  0  0  0
311325  1  0  0  0  0
312326  1  0  0  0  0
102327  4  0  0  0  0
327328  4  0  0  0  0
328329  4  0  0  0  0
329330  2  0  0  0  0
330331  4  0  0  0  0
328332  4  0  0  0  0
331332  4  0  0  0  0
331333  4  0  0  0  0
333334  4  0  0  0  0
334335  1  0  0  0  0
335336  2  0  0  0  0
334337  4  0  0  0  0
336338  1  0  0  0  0
337338  4  0  0  0  0
104339  4  0  0  0  0
338339  4  0  0  0  0
339340  4  0  0  0  0
340341  4  0  0  0  0
341342  2  0  0  0  0
342343  4  0  0  0  0
340344  4  0  0  0  0
343344  4  0  0  0  0
343345  4  0  0  0  0
345346  4  0  0  0  0
346347  1  0  0  0  0
347348  2  0  0  0  0
327349  4  0  0  0  0
348349  1  0  0  0  0
346350  4  0  0  0  0
349350  4  0  0  0  0
329351  1  0  0  0  0
330352  1  0  0  0  0
332353  1  0  0  0  0
333354  1  0  0  0  0
335355  1  0  0  0  0
336356  1  0  0  0  0
341357  1  0  0  0  0
342358  1  0  0  0  0
344359  1  0  0  0  0
345360  1  0  0  0  0
347361  1  0  0  0  0
348362  1  0  0  0  0
106363  4  0  0  0  0
363364  4  0  0  0  0
364365  4  0  0  0  0
365366  2  0  0  0  0
366367  4  0  0  0  0
364368  4  0  0  0  0
367368  4  0  0  0  0
367369  4  0  0  0  0
369370  4  0  0  0  0
370371  1  0  0  0  0
371372  2  0  0  0  0
370373  4  0  0  0  0
372374  1  0  0  0  0
373374  4  0  0  0  0
108375  4  0  0  0  0
374375  4  0  0  0  0
375376  4  0  0  0  0
376377  4  0  0  0  0
377378  2  0  0  0  0
378379  4  0  0  0  0
376380  4  0  0  0  0
379380  4  0  0  0  0
379381  4  0  0  0  0
381382  4  0  0  0  0
382383  1  0  0  0  0
383384  2  0  0  0  0
363385  4  0  0  0  0
384385  1  0  0  0  0
382386  4  0  0  0  0
385386  4  0  0  0  0
365387  1  0  0  0  0
366388  1  0  0  0  0
368389  1  0  0  0  0
369390  1  0  0  0  0
371391  1  0  0  0  0
372392  1  0  0  0  0
377393  1  0  0  0  0
378394  1  0  0  0  0
380395  1  0  0  0  0
381396  1  0  0  0  0
383397  1  0  0  0  0
384398  1  0  0  0  0
M  END
