392

C 68.627366 0.043911 0.003432
C 69.352220 -1.010024 0.894716
C 68.736769 -1.997200 1.630801
C 69.758196 -2.701338 2.318594
C 70.963873 -2.113886 1.985146
N 70.706893 -1.110372 1.085262
C 72.391926 -2.499247 2.555414
C 72.441428 -3.446535 3.694169
C 72.690815 -4.804933 3.475827
C 72.743421 -5.695525 4.552263
C 72.588869 -5.235222 5.862755
N 72.550211 -6.146442 6.932822
C 72.265282 -3.890690 6.071613
C 72.213912 -2.996372 4.998088
C 73.520576 -1.942227 2.037775
C 74.829871 -2.222607 2.590516
C 75.731398 -1.526249 1.908358
N 73.713615 -1.064602 1.002406
C 75.047780 -0.774710 0.874195
C 75.717686 0.030250 0.006359
C 74.943154 0.810283 -1.140183
C 75.497534 1.303444 -2.305050
C 74.472479 1.970891 -3.019213
C 73.315780 1.854941 -2.279099
N 73.602016 1.109418 -1.159109
C 71.898731 2.457785 -2.658762
C 71.848950 3.539547 -3.667064
C 71.629134 3.239638 -5.015159
C 71.580061 4.262107 -5.967006
C 71.703199 5.599234 -5.579657
N 71.743003 6.615378 -6.550591
C 71.993187 5.890119 -4.242830
C 72.045015 4.870128 -3.287488
C 70.776562 1.982814 -2.058118
C 69.451293 2.495274 -2.358974
C 68.567715 1.824522 -1.626191
C 69.292941 0.865289 -0.830027
N 70.615401 1.005703 -1.115250
H 67.548364 0.109587 0.072696
H 67.674107 -2.181351 1.678017
H 69.626177 -3.530272 2.998780
H 71.410663 -0.532487 0.632303
H 72.838642 -5.158061 2.458569
H 72.917114 -6.747414 4.350595
H 72.778684 -5.704003 7.817376
H 73.115910 -6.969961 6.753156
H 72.059122 -3.517489 7.069551
H 71.989412 -1.944761 5.164326
H 75.045934 -2.870882 3.420588
H 76.787597 -1.539545 2.104633
H 76.528997 1.207308 -2.606902
H 74.568859 2.481385 -3.965456
H 72.913294 0.792702 -0.481578
H 71.503600 2.201138 -5.312032
H 71.435764 3.997488 -7.008956
H 71.195796 6.378816 -7.370983
H 71.492265 7.519377 -6.164499
H 72.172827 6.911796 -3.924112
H 72.243117 5.099649 -2.242689
H 69.219655 3.281723 -3.054283
H 67.502697 1.968005 -1.621956
C 156.577859 0.030530 0.020327
C 155.853004 0.656707 -1.209741
C 156.468455 1.147104 -2.339276
C 155.447028 1.655324 -3.182236
C 154.241352 1.465300 -2.534025
N 154.498331 0.819203 -1.351067
C 152.813298 1.932138 -3.039764
C 152.763796 2.823635 -4.222704
C 152.514410 2.299949 -5.494975
C 152.461803 3.143771 -6.608453
C 152.616356 4.524856 -6.460564
N 152.655014 5.357754 -7.592662
C 152.939942 5.036134 -5.199619
C 152.991313 4.196000 -4.083180
C 151.684648 1.555850 -2.378984
C 150.375353 2.029673 -2.778518
C 149.473826 1.525156 -1.944422
N 151.491610 0.749033 -1.287535
C 150.157444 0.690633 -0.975983
C 149.487538 0.030250 0.006359
C 150.262071 -0.907138 1.028275
C 149.707690 -1.928073 1.775145
C 150.732745 -2.470366 2.588430
C 151.889444 -1.776489 2.306035
N 151.603208 -0.857042 1.323793
C 153.306493 -2.007973 2.979815
C 153.356274 -2.741683 4.263775
C 153.576090 -4.122633 4.280629
C 153.625163 -4.814970 5.493940
C 153.502025 -4.131643 6.706792
N 153.462221 -4.844009 7.918318
C 153.212037 -2.763729 6.683735
C 153.160210 -2.067422 5.472035
C 154.428662 -1.532093 2.379891
C 155.753931 -1.707568 2.947639
C 156.637510 -1.147907 2.126872
C 155.912284 -0.592628 1.010776
N 154.589824 -0.838106 1.212789
H 157.656861 0.112996 0.068392
H 157.531117 1.150884 -2.529347
H 155.579047 2.127554 -4.144932
H 153.794562 0.510654 -0.684793
H 152.366583 1.228851 -5.605705
H 152.288111 2.706523 -7.586182
H 152.426540 6.320133 -7.364599
H 152.089314 4.994232 -8.353133
H 153.146102 6.093025 -5.064924
H 153.215812 4.598696 -3.097606
H 150.159291 2.689185 -3.599690
H 148.417627 1.713167 -2.002322
H 148.676228 -2.243921 1.750705
H 150.636366 -3.274520 3.302094
H 152.291930 -0.270070 0.860305
H 153.701625 -4.649487 3.337739
H 153.769460 -5.889831 5.475020
H 154.009428 -5.696775 7.875961
H 153.712960 -4.261116 8.709846
H 153.032397 -2.219463 7.605244
H 152.962108 -0.997828 5.456137
H 155.985569 -2.204251 3.872444
H 157.702527 -1.110919 2.265570
C 81.796725 0.031352 0.014849
C 80.587785 0.017897 0.006402
C 79.166256 0.026717 -0.005582
C 77.954587 0.034155 0.005281
C 83.213329 0.024677 0.015382
C 84.434025 0.034155 0.005281
C 97.501590 0.031352 0.014849
C 96.292651 0.017897 0.006402
C 94.871122 0.026717 -0.005582
C 93.659453 0.034155 0.005281
C 98.918195 0.024677 0.015382
C 100.138890 0.034155 0.005281
C 113.206456 0.031352 0.014849
C 111.997517 0.017897 0.006402
C 110.575988 0.026717 -0.005582
C 109.364318 0.034155 0.005281
C 114.623060 0.024677 0.015382
C 115.843756 0.034155 0.005281
C 128.911322 0.031352 0.014849
C 127.702382 0.017897 0.006402
C 126.280854 0.026717 -0.005582
C 125.069184 0.034155 0.005281
C 130.327926 0.024677 0.015382
C 131.548622 0.034155 0.005281
C 144.616187 0.031352 0.014849
C 143.407248 0.017897 0.006402
C 141.985719 0.026717 -0.005582
C 140.774050 0.034155 0.005281
C 146.032792 0.024677 0.015382
C 147.253488 0.034155 0.005281
C 85.469080 -0.019646 -0.003893
C 86.261725 -0.605805 1.236738
C 85.753232 -1.416238 2.231569
C 86.789846 -1.628751 3.176142
C 87.900865 -0.947875 2.724673
N 87.591018 -0.392725 1.508316
C 89.290591 -0.816711 3.472454
C 89.284732 -0.909364 4.951130
C 89.744299 -2.063243 5.594900
C 89.735623 -2.145324 6.990633
C 89.306009 -1.062676 7.763135
N 89.212500 -1.183645 9.160473
C 88.776523 0.057967 7.116825
C 88.784781 0.144691 5.721117
C 90.425318 -0.579418 2.762439
C 91.712290 -0.390219 3.399805
C 92.619965 -0.171274 2.454639
N 90.633283 -0.451364 1.416776
C 91.957658 -0.209515 1.166352
C 92.621764 -0.019646 -0.003893
C 91.829106 -0.069288 -1.375088
C 92.337412 -0.422436 -2.608769
C 91.300817 -0.245255 -3.560630
C 90.189993 0.203093 -2.877367
N 90.499944 0.234074 -1.540705
C 88.800299 0.618486 -3.512819
C 88.805980 1.115806 -4.908405
C 89.303604 2.388874 -5.200774
C 89.311464 2.858885 -6.517824
C 88.783933 2.082325 -7.553493
N 88.877200 2.521619 -8.885507
C 88.356672 0.782117 -7.269996
C 88.348313 0.307876 -5.954754
C 87.665596 0.556737 -2.766730
C 86.378606 0.981647 -3.278025
C 85.470907 0.810223 -2.323120
C 86.133218 0.267370 -1.154153
N 87.457646 0.144081 -1.479517
H 84.743768 -1.794377 2.286626
H 86.727519 -2.195913 4.092866
H 88.253000 0.065603 0.888781
H 90.104840 -2.895915 4.994933
H 90.077189 -3.061320 7.461046
H 89.904924 -1.823422 9.534962
H 89.226929 -0.280582 9.622582
H 88.359089 0.881396 7.686852
H 88.395608 1.029063 5.221613
H 91.907729 -0.410536 4.456950
H 93.664205 0.006466 2.635689
H 93.346746 -0.748736 -2.808373
H 91.362996 -0.405489 -4.626641
H 89.838047 0.411491 -0.790685
H 89.691198 3.005779 -4.393133
H 89.727057 3.841066 -6.717327
H 88.186090 2.079438 -9.482077
H 88.860564 3.533656 -8.954678
H 88.016674 0.124762 -8.063275
H 87.989527 -0.694441 -5.731342
H 86.183192 1.379529 -4.257662
H 84.426635 1.044714 -2.419556
C 101.173945 -0.019646 -0.003893
C 101.966590 -0.605805 1.236738
C 101.458098 -1.416238 2.231569
C 102.494712 -1.628751 3.176142
C 103.605731 -0.947875 2.724673
N 103.295884 -0.392725 1.508316
C 104.995456 -0.816711 3.472454
C 104.989598 -0.909364 4.951130
C 105.449165 -2.063243 5.594900
C 105.440489 -2.145324 6.990633
C 105.010875 -1.062676 7.763135
N 104.917366 -1.183645 9.160473
C 104.481388 0.057967 7.116825
C 104.489647 0.144691 5.721117
C 106.130183 -0.579418 2.762439
C 107.417155 -0.390219 3.399805
C 108.324831 -0.171274 2.454639
N 106.338149 -0.451364 1.416776
C 107.662524 -0.209515 1.166352
C 108.326630 -0.019646 -0.003893
C 107.533972 -0.069288 -1.375088
C 108.042277 -0.422436 -2.608769
C 107.005683 -0.245255 -3.560630
C 105.894859 0.203093 -2.877367
N 106.204810 0.234074 -1.540705
C 104.505165 0.618486 -3.512819
C 104.510846 1.115806 -4.908405
C 105.008470 2.388874 -5.200774
C 105.016330 2.858885 -6.517824
C 104.488799 2.082325 -7.553493
N 104.582066 2.521619 -8.885507
C 104.061538 0.782117 -7.269996
C 104.053179 0.307876 -5.954754
C 103.370462 0.556737 -2.766730
C 102.083471 0.981647 -3.278025
C 101.175773 0.810223 -2.323120
C 101.838084 0.267370 -1.154153
N 103.162512 0.144081 -1.479517
H 100.448633 -1.794377 2.286626
H 102.432385 -2.195913 4.092866
H 103.957866 0.065603 0.888781
H 105.809706 -2.895915 4.994933
H 105.782055 -3.061320 7.461046
H 105.609790 -1.823422 9.534962
H 104.931794 -0.280582 9.622582
H 104.063954 0.881396 7.686852
H 104.100473 1.029063 5.221613
H 107.612595 -0.410536 4.456950
H 109.369070 0.006466 2.635689
H 109.051611 -0.748736 -2.808373
H 107.067862 -0.405489 -4.626641
H 105.542913 0.411491 -0.790685
H 105.396064 3.005779 -4.393133
H 105.431923 3.841066 -6.717327
H 103.890955 2.079438 -9.482077
H 104.565429 3.533656 -8.954678
H 103.721540 0.124762 -8.063275
H 103.694393 -0.694441 -5.731342
H 101.888058 1.379529 -4.257662
H 100.131501 1.044714 -2.419556
C 116.878811 -0.019646 -0.003893
C 117.671456 -0.605805 1.236738
C 117.162963 -1.416238 2.231569
C 118.199577 -1.628751 3.176142
C 119.310597 -0.947875 2.724673
N 119.000749 -0.392725 1.508316
C 120.700322 -0.816711 3.472454
C 120.694463 -0.909364 4.951130
C 121.154031 -2.063243 5.594900
C 121.145354 -2.145324 6.990633
C 120.715741 -1.062676 7.763135
N 120.622231 -1.183645 9.160473
C 120.186254 0.057967 7.116825
C 120.194513 0.144691 5.721117
C 121.835049 -0.579418 2.762439
C 123.122021 -0.390219 3.399805
C 124.029697 -0.171274 2.454639
N 122.043014 -0.451364 1.416776
C 123.367389 -0.209515 1.166352
C 124.031495 -0.019646 -0.003893
C 123.238837 -0.069288 -1.375088
C 123.747143 -0.422436 -2.608769
C 122.710548 -0.245255 -3.560630
C 121.599725 0.203093 -2.877367
N 121.909676 0.234074 -1.540705
C 120.210030 0.618486 -3.512819
C 120.215712 1.115806 -4.908405
C 120.713335 2.388874 -5.200774
C 120.721195 2.858885 -6.517824
C 120.193664 2.082325 -7.553493
N 120.286931 2.521619 -8.885507
C 119.766404 0.782117 -7.269996
C 119.758045 0.307876 -5.954754
C 119.075328 0.556737 -2.766730
C 117.788337 0.981647 -3.278025
C 116.880638 0.810223 -2.323120
C 117.542949 0.267370 -1.154153
N 118.867377 0.144081 -1.479517
H 116.153499 -1.794377 2.286626
H 118.137250 -2.195913 4.092866
H 119.662732 0.065603 0.888781
H 121.514572 -2.895915 4.994933
H 121.486921 -3.061320 7.461046
H 121.314656 -1.823422 9.534962
H 120.636660 -0.280582 9.622582
H 119.768820 0.881396 7.686852
H 119.805339 1.029063 5.221613
H 123.317461 -0.410536 4.456950
H 125.073936 0.006466 2.635689
H 124.756477 -0.748736 -2.808373
H 122.772728 -0.405489 -4.626641
H 121.247779 0.411491 -0.790685
H 121.100930 3.005779 -4.393133
H 121.136789 3.841066 -6.717327
H 119.595821 2.079438 -9.482077
H 120.270295 3.533656 -8.954678
H 119.426406 0.124762 -8.063275
H 119.399259 -0.694441 -5.731342
H 117.592923 1.379529 -4.257662
H 115.836366 1.044714 -2.419556
C 132.583677 -0.019646 -0.003893
C 133.376322 -0.605805 1.236738
C 132.867829 -1.416238 2.231569
C 133.904443 -1.628751 3.176142
C 135.015462 -0.947875 2.724673
N 134.705615 -0.392725 1.508316
C 136.405188 -0.816711 3.472454
C 136.399329 -0.909364 4.951130
C 136.858897 -2.063243 5.594900
C 136.850220 -2.145324 6.990633
C 136.420606 -1.062676 7.763135
N 136.327097 -1.183645 9.160473
C 135.891120 0.057967 7.116825
C 135.899379 0.144691 5.721117
C 137.539915 -0.579418 2.762439
C 138.826887 -0.390219 3.399805
C 139.734562 -0.171274 2.454639
N 137.747880 -0.451364 1.416776
C 139.072255 -0.209515 1.166352
C 139.736361 -0.019646 -0.003893
C 138.943703 -0.069288 -1.375088
C 139.452009 -0.422436 -2.608769
C 138.415414 -0.245255 -3.560630
C 137.304590 0.203093 -2.877367
N 137.614542 0.234074 -1.540705
C 135.914896 0.618486 -3.512819
C 135.920577 1.115806 -4.908405
C 136.418201 2.388874 -5.200774
C 136.426061 2.858885 -6.517824
C 135.898530 2.082325 -7.553493
N 135.991797 2.521619 -8.885507
C 135.471270 0.782117 -7.269996
C 135.462911 0.307876 -5.954754
C 134.780193 0.556737 -2.766730
C 133.493203 0.981647 -3.278025
C 132.585504 0.810223 -2.323120
C 133.247815 0.267370 -1.154153
N 134.572243 0.144081 -1.479517
H 131.858365 -1.794377 2.286626
H 133.842116 -2.195913 4.092866
H 135.367598 0.065603 0.888781
H 137.219437 -2.895915 4.994933
H 137.191786 -3.061320 7.461046
H 137.019521 -1.823422 9.534962
H 136.341526 -0.280582 9.622582
H 135.473686 0.881396 7.686852
H 135.510205 1.029063 5.221613
H 139.022327 -0.410536 4.456950
H 140.778802 0.006466 2.635689
H 140.461343 -0.748736 -2.808373
H 138.477593 -0.405489 -4.626641
H 136.952645 0.411491 -0.790685
H 136.805795 3.005779 -4.393133
H 136.841655 3.841066 -6.717327
H 135.300687 2.079438 -9.482077
H 135.975161 3.533656 -8.954678
H 135.131271 0.124762 -8.063275
H 135.104124 -0.694441 -5.731342
H 133.297789 1.379529 -4.257662
H 131.541232 1.044714 -2.419556
