 xtb: 6.5.1 (b24c23e)
          07292219133D

392433  0     0  0            999 V2000
   69.1876   -0.0744    0.0841 C   0  0  0  0  0  0  0  0  0  0  0  0
   69.8012   -0.9460    0.9750 C   0  0  0  0  0  0  0  0  0  0  0  0
   69.1534   -1.8632    1.8485 C   0  0  0  0  0  0  0  0  0  0  0  0
   70.1180   -2.5204    2.5600 C   0  0  0  0  0  0  0  0  0  0  0  0
   71.3859   -2.0166    2.1529 C   0  0  0  0  0  0  0  0  0  0  0  0
   71.1442   -1.0794    1.1885 N   0  0  0  0  0  0  0  0  0  0  0  0
   72.6503   -2.3972    2.6200 C   0  0  0  0  0  0  0  0  0  0  0  0
   72.6855   -3.4098    3.7010 C   0  0  0  0  0  0  0  0  0  0  0  0
   73.3559   -4.6222    3.5192 C   0  0  0  0  0  0  0  0  0  0  0  0
   73.3840   -5.5752    4.5216 C   0  0  0  0  0  0  0  0  0  0  0  0
   72.7500   -5.3284    5.7422 C   0  0  0  0  0  0  0  0  0  0  0  0
   72.7413   -6.2953    6.7324 N   0  0  0  0  0  0  0  0  0  0  0  0
   72.0743   -4.1201    5.9311 C   0  0  0  0  0  0  0  0  0  0  0  0
   72.0435   -3.1763    4.9198 C   0  0  0  0  0  0  0  0  0  0  0  0
   73.8613   -1.8915    2.1395 C   0  0  0  0  0  0  0  0  0  0  0  0
   75.1597   -2.2422    2.6855 C   0  0  0  0  0  0  0  0  0  0  0  0
   76.0754   -1.5658    1.9608 C   0  0  0  0  0  0  0  0  0  0  0  0
   74.0098   -1.0004    1.1201 N   0  0  0  0  0  0  0  0  0  0  0  0
   75.3350   -0.7952    0.9813 C   0  0  0  0  0  0  0  0  0  0  0  0
   75.9673    0.0290    0.0273 C   0  0  0  0  0  0  0  0  0  0  0  0
   75.3275    0.8489   -0.9223 C   0  0  0  0  0  0  0  0  0  0  0  0
   75.9687    1.6545   -1.8998 C   0  0  0  0  0  0  0  0  0  0  0  0
   74.9996    2.3102   -2.6082 C   0  0  0  0  0  0  0  0  0  0  0  0
   73.7357    1.9319   -2.0773 C   0  0  0  0  0  0  0  0  0  0  0  0
   73.9860    1.0393   -1.0677 N   0  0  0  0  0  0  0  0  0  0  0  0
   72.4726    2.3591   -2.5021 C   0  0  0  0  0  0  0  0  0  0  0  0
   72.4330    3.3676   -3.5860 C   0  0  0  0  0  0  0  0  0  0  0  0
   71.7715    3.0970   -4.7868 C   0  0  0  0  0  0  0  0  0  0  0  0
   71.7286    4.0366   -5.8012 C   0  0  0  0  0  0  0  0  0  0  0  0
   72.3373    5.2826   -5.6294 C   0  0  0  0  0  0  0  0  0  0  0  0
   72.3271    6.2117   -6.6551 N   0  0  0  0  0  0  0  0  0  0  0  0
   73.0069    5.5590   -4.4345 C   0  0  0  0  0  0  0  0  0  0  0  0
   73.0535    4.6097   -3.4290 C   0  0  0  0  0  0  0  0  0  0  0  0
   71.2595    1.9008   -1.9743 C   0  0  0  0  0  0  0  0  0  0  0  0
   69.9526    2.3947   -2.3784 C   0  0  0  0  0  0  0  0  0  0  0  0
   69.0437    1.7076   -1.6567 C   0  0  0  0  0  0  0  0  0  0  0  0
   69.7945    0.8053   -0.8025 C   0  0  0  0  0  0  0  0  0  0  0  0
   71.1254    0.9566   -1.0132 N   0  0  0  0  0  0  0  0  0  0  0  0
   68.1022   -0.0891    0.0889 H   0  0  0  0  0  0  0  0  0  0  0  0
   68.0853   -1.9991    1.9097 H   0  0  0  0  0  0  0  0  0  0  0  0
   69.9691   -3.2944    3.2952 H   0  0  0  0  0  0  0  0  0  0  0  0
   71.8681   -0.5642    0.6988 H   0  0  0  0  0  0  0  0  0  0  0  0
   73.8415   -4.8260    2.5712 H   0  0  0  0  0  0  0  0  0  0  0  0
   73.8983   -6.5169    4.3640 H   0  0  0  0  0  0  0  0  0  0  0  0
   72.5696   -5.9504    7.6633 H   0  0  0  0  0  0  0  0  0  0  0  0
   73.4905   -6.9667    6.6788 H   0  0  0  0  0  0  0  0  0  0  0  0
   71.5780   -3.9234    6.8752 H   0  0  0  0  0  0  0  0  0  0  0  0
   71.5342   -2.2326    5.0830 H   0  0  0  0  0  0  0  0  0  0  0  0
   75.3266   -2.9030    3.5207 H   0  0  0  0  0  0  0  0  0  0  0  0
   77.1487   -1.5643    2.0656 H   0  0  0  0  0  0  0  0  0  0  0  0
   77.0360    1.7135   -2.0402 H   0  0  0  0  0  0  0  0  0  0  0  0
   75.1448    2.9872   -3.4341 H   0  0  0  0  0  0  0  0  0  0  0  0
   73.2651    0.5825   -0.5189 H   0  0  0  0  0  0  0  0  0  0  0  0
   71.3047    2.1290   -4.9319 H   0  0  0  0  0  0  0  0  0  0  0  0
   71.2210    3.8103   -6.7325 H   0  0  0  0  0  0  0  0  0  0  0  0
   71.5797    6.1018   -7.3218 H   0  0  0  0  0  0  0  0  0  0  0  0
   72.4789    7.1653   -6.3676 H   0  0  0  0  0  0  0  0  0  0  0  0
   73.4848    6.5228   -4.2966 H   0  0  0  0  0  0  0  0  0  0  0  0
   73.5570    4.8410   -2.4966 H   0  0  0  0  0  0  0  0  0  0  0  0
   69.7781    3.1723   -3.1045 H   0  0  0  0  0  0  0  0  0  0  0  0
   67.9680    1.7894   -1.6713 H   0  0  0  0  0  0  0  0  0  0  0  0
  156.0190    0.0785   -0.1048 C   0  0  0  0  0  0  0  0  0  0  0  0
  155.4030    0.7356   -1.1625 C   0  0  0  0  0  0  0  0  0  0  0  0
  156.0489    1.3818   -2.2531 C   0  0  0  0  0  0  0  0  0  0  0  0
  155.0820    1.9079   -3.0635 C   0  0  0  0  0  0  0  0  0  0  0  0
  153.8144    1.6096   -2.4880 C   0  0  0  0  0  0  0  0  0  0  0  0
  154.0588    0.8935   -1.3504 N   0  0  0  0  0  0  0  0  0  0  0  0
  152.5482    1.9525   -2.9788 C   0  0  0  0  0  0  0  0  0  0  0  0
  152.5109    2.7689   -4.2149 C   0  0  0  0  0  0  0  0  0  0  0  0
  151.8649    2.2991   -5.3612 C   0  0  0  0  0  0  0  0  0  0  0  0
  151.8336    3.0559   -6.5188 C   0  0  0  0  0  0  0  0  0  0  0  0
  152.4394    4.3147   -6.5507 C   0  0  0  0  0  0  0  0  0  0  0  0
  152.4445    5.0577   -7.7184 N   0  0  0  0  0  0  0  0  0  0  0  0
  153.0916    4.7901   -5.4102 C   0  0  0  0  0  0  0  0  0  0  0  0
  153.1260    4.0226   -4.2595 C   0  0  0  0  0  0  0  0  0  0  0  0
  151.3380    1.5828   -2.3862 C   0  0  0  0  0  0  0  0  0  0  0  0
  150.0362    2.0024   -2.8722 C   0  0  0  0  0  0  0  0  0  0  0  0
  149.1227    1.4485   -2.0478 C   0  0  0  0  0  0  0  0  0  0  0  0
  151.1930    0.8081   -1.2751 N   0  0  0  0  0  0  0  0  0  0  0  0
  149.8676    0.7022   -1.0529 C   0  0  0  0  0  0  0  0  0  0  0  0
  149.2384   -0.0163   -0.0150 C   0  0  0  0  0  0  0  0  0  0  0  0
  149.8809   -0.7203    1.0218 C   0  0  0  0  0  0  0  0  0  0  0  0
  149.2428   -1.4692    2.0454 C   0  0  0  0  0  0  0  0  0  0  0  0
  150.2141   -1.9914    2.8544 C   0  0  0  0  0  0  0  0  0  0  0  0
  151.4764   -1.5680    2.3546 C   0  0  0  0  0  0  0  0  0  0  0  0
  151.2228   -0.8097    1.2414 N   0  0  0  0  0  0  0  0  0  0  0  0
  152.7411   -1.8754    2.8689 C   0  0  0  0  0  0  0  0  0  0  0  0
  152.7852   -2.6867    4.1074 C   0  0  0  0  0  0  0  0  0  0  0  0
  153.4453   -3.9181    4.1278 C   0  0  0  0  0  0  0  0  0  0  0  0
  153.4932   -4.6790    5.2820 C   0  0  0  0  0  0  0  0  0  0  0  0
  152.8911   -4.2140    6.4541 C   0  0  0  0  0  0  0  0  0  0  0  0
  152.9065   -4.9883    7.6011 N   0  0  0  0  0  0  0  0  0  0  0  0
  152.2230   -2.9869    6.4407 C   0  0  0  0  0  0  0  0  0  0  0  0
  152.1713   -2.2369    5.2791 C   0  0  0  0  0  0  0  0  0  0  0  0
  153.9526   -1.4702    2.2959 C   0  0  0  0  0  0  0  0  0  0  0  0
  155.2605   -1.7413    2.8713 C   0  0  0  0  0  0  0  0  0  0  0  0
  156.1673   -1.1975    2.0342 C   0  0  0  0  0  0  0  0  0  0  0  0
  155.4143   -0.5831    0.9558 C   0  0  0  0  0  0  0  0  0  0  0  0
  154.0841   -0.7592    1.1512 N   0  0  0  0  0  0  0  0  0  0  0  0
  157.1043    0.0904   -0.1161 H   0  0  0  0  0  0  0  0  0  0  0  0
  157.1174    1.4251   -2.3922 H   0  0  0  0  0  0  0  0  0  0  0  0
  155.2291    2.4461   -3.9858 H   0  0  0  0  0  0  0  0  0  0  0  0
  153.3361    0.5269   -0.7400 H   0  0  0  0  0  0  0  0  0  0  0  0
  151.4011    1.3189   -5.3480 H   0  0  0  0  0  0  0  0  0  0  0  0
  151.3382    2.6754   -7.4054 H   0  0  0  0  0  0  0  0  0  0  0  0
  152.5919    6.0465   -7.5932 H   0  0  0  0  0  0  0  0  0  0  0  0
  151.7070    4.8353   -8.3678 H   0  0  0  0  0  0  0  0  0  0  0  0
  153.5665    5.7651   -5.4293 H   0  0  0  0  0  0  0  0  0  0  0  0
  153.6166    4.4086   -3.3724 H   0  0  0  0  0  0  0  0  0  0  0  0
  149.8652    2.6473   -3.7190 H   0  0  0  0  0  0  0  0  0  0  0  0
  148.0481    1.5312   -2.0821 H   0  0  0  0  0  0  0  0  0  0  0  0
  148.1759   -1.5935    2.1383 H   0  0  0  0  0  0  0  0  0  0  0  0
  150.0716   -2.6247    3.7147 H   0  0  0  0  0  0  0  0  0  0  0  0
  151.9420   -0.3893    0.6620 H   0  0  0  0  0  0  0  0  0  0  0  0
  153.9073   -4.2904    3.2200 H   0  0  0  0  0  0  0  0  0  0  0  0
  153.9996   -5.6381    5.2820 H   0  0  0  0  0  0  0  0  0  0  0  0
  153.6529   -5.6633    7.6493 H   0  0  0  0  0  0  0  0  0  0  0  0
  152.7603   -4.4813    8.4594 H   0  0  0  0  0  0  0  0  0  0  0  0
  151.7503   -2.6223    7.3462 H   0  0  0  0  0  0  0  0  0  0  0  0
  151.6690   -1.2756    5.2837 H   0  0  0  0  0  0  0  0  0  0  0  0
  155.4369   -2.2635    3.7980 H   0  0  0  0  0  0  0  0  0  0  0  0
  157.2430   -1.1876    2.1176 H   0  0  0  0  0  0  0  0  0  0  0  0
   81.1694    0.0765   -0.0271 C   0  0  0  0  0  0  0  0  0  0  0  0
   79.9406    0.0682   -0.0177 C   0  0  0  0  0  0  0  0  0  0  0  0
   78.5967    0.0589   -0.0054 C   0  0  0  0  0  0  0  0  0  0  0  0
   77.3725    0.0464    0.0136 C   0  0  0  0  0  0  0  0  0  0  0  0
   82.5132    0.0848   -0.0302 C   0  0  0  0  0  0  0  0  0  0  0  0
   83.7376    0.0911   -0.0300 C   0  0  0  0  0  0  0  0  0  0  0  0
   97.1937   -0.0406   -0.0064 C   0  0  0  0  0  0  0  0  0  0  0  0
   95.9646   -0.0362   -0.0081 C   0  0  0  0  0  0  0  0  0  0  0  0
   94.6215   -0.0237   -0.0076 C   0  0  0  0  0  0  0  0  0  0  0  0
   93.3968   -0.0078   -0.0041 C   0  0  0  0  0  0  0  0  0  0  0  0
   98.5368   -0.0382   -0.0061 C   0  0  0  0  0  0  0  0  0  0  0  0
   99.7616   -0.0297   -0.0077 C   0  0  0  0  0  0  0  0  0  0  0  0
  113.2168   -0.0412   -0.0089 C   0  0  0  0  0  0  0  0  0  0  0  0
  111.9876   -0.0425   -0.0075 C   0  0  0  0  0  0  0  0  0  0  0  0
  110.6446   -0.0359   -0.0050 C   0  0  0  0  0  0  0  0  0  0  0  0
  109.4198   -0.0263    0.0028 C   0  0  0  0  0  0  0  0  0  0  0  0
  114.5598   -0.0341   -0.0102 C   0  0  0  0  0  0  0  0  0  0  0  0
  115.7845   -0.0220   -0.0117 C   0  0  0  0  0  0  0  0  0  0  0  0
  129.2395   -0.0392   -0.0099 C   0  0  0  0  0  0  0  0  0  0  0  0
  128.0103   -0.0392   -0.0118 C   0  0  0  0  0  0  0  0  0  0  0  0
  126.6672   -0.0361   -0.0083 C   0  0  0  0  0  0  0  0  0  0  0  0
  125.4424   -0.0271   -0.0015 C   0  0  0  0  0  0  0  0  0  0  0  0
  130.5825   -0.0335   -0.0081 C   0  0  0  0  0  0  0  0  0  0  0  0
  131.8073   -0.0227   -0.0078 C   0  0  0  0  0  0  0  0  0  0  0  0
  145.2649   -0.0541    0.0167 C   0  0  0  0  0  0  0  0  0  0  0  0
  144.0362   -0.0539    0.0232 C   0  0  0  0  0  0  0  0  0  0  0  0
  142.6923   -0.0473    0.0255 C   0  0  0  0  0  0  0  0  0  0  0  0
  141.4678   -0.0356    0.0274 C   0  0  0  0  0  0  0  0  0  0  0  0
  146.6089   -0.0476    0.0119 C   0  0  0  0  0  0  0  0  0  0  0  0
  147.8331   -0.0341    0.0005 C   0  0  0  0  0  0  0  0  0  0  0  0
   85.1420    0.0893   -0.0244 C   0  0  0  0  0  0  0  0  0  0  0  0
   85.7608   -0.2332    1.1995 C   0  0  0  0  0  0  0  0  0  0  0  0
   85.1034   -0.5818    2.4070 C   0  0  0  0  0  0  0  0  0  0  0  0
   86.0607   -0.7839    3.3641 C   0  0  0  0  0  0  0  0  0  0  0  0
   87.3307   -0.5556    2.7693 C   0  0  0  0  0  0  0  0  0  0  0  0
   87.0991   -0.2387    1.4571 N   0  0  0  0  0  0  0  0  0  0  0  0
   88.5849   -0.6436    3.3880 C   0  0  0  0  0  0  0  0  0  0  0  0
   88.5887   -0.9395    4.8402 C   0  0  0  0  0  0  0  0  0  0  0  0
   89.2352   -2.0754    5.3343 C   0  0  0  0  0  0  0  0  0  0  0  0
   89.2424   -2.3547    6.6891 C   0  0  0  0  0  0  0  0  0  0  0  0
   88.6127   -1.4890    7.5872 C   0  0  0  0  0  0  0  0  0  0  0  0
   88.5872   -1.7836    8.9391 N   0  0  0  0  0  0  0  0  0  0  0  0
   87.9584   -0.3542    7.1007 C   0  0  0  0  0  0  0  0  0  0  0  0
   87.9469   -0.0880    5.7431 C   0  0  0  0  0  0  0  0  0  0  0  0
   89.8132   -0.4749    2.7455 C   0  0  0  0  0  0  0  0  0  0  0  0
   91.0945   -0.5065    3.4271 C   0  0  0  0  0  0  0  0  0  0  0  0
   92.0377   -0.3296    2.4783 C   0  0  0  0  0  0  0  0  0  0  0  0
   89.9985   -0.2543    1.4142 N   0  0  0  0  0  0  0  0  0  0  0  0
   91.3306   -0.1766    1.2229 C   0  0  0  0  0  0  0  0  0  0  0  0
   91.9935    0.0140   -0.0070 C   0  0  0  0  0  0  0  0  0  0  0  0
   91.3735    0.2343   -1.2530 C   0  0  0  0  0  0  0  0  0  0  0  0
   92.0289    0.3926   -2.5007 C   0  0  0  0  0  0  0  0  0  0  0  0
   91.0716    0.6148   -3.4533 C   0  0  0  0  0  0  0  0  0  0  0  0
   89.8039    0.6086   -2.8114 C   0  0  0  0  0  0  0  0  0  0  0  0
   90.0367    0.3610   -1.4845 N   0  0  0  0  0  0  0  0  0  0  0  0
   88.5509    0.8062   -3.4067 C   0  0  0  0  0  0  0  0  0  0  0  0
   88.5496    1.1226   -4.8544 C   0  0  0  0  0  0  0  0  0  0  0  0
   89.2213    2.2480   -5.3389 C   0  0  0  0  0  0  0  0  0  0  0  0
   89.2207    2.5486   -6.6893 C   0  0  0  0  0  0  0  0  0  0  0  0
   88.5472    1.7210   -7.5916 C   0  0  0  0  0  0  0  0  0  0  0  0
   88.5858    1.9903   -8.9482 N   0  0  0  0  0  0  0  0  0  0  0  0
   87.8846    0.5859   -7.1169 C   0  0  0  0  0  0  0  0  0  0  0  0
   87.8815    0.2985   -5.7637 C   0  0  0  0  0  0  0  0  0  0  0  0
   87.3234    0.7265   -2.7450 C   0  0  0  0  0  0  0  0  0  0  0  0
   86.0450    1.0033   -3.3742 C   0  0  0  0  0  0  0  0  0  0  0  0
   85.1014    0.7981   -2.4314 C   0  0  0  0  0  0  0  0  0  0  0  0
   85.8056    0.4100   -1.2261 C   0  0  0  0  0  0  0  0  0  0  0  0
   87.1371    0.3892   -1.4388 N   0  0  0  0  0  0  0  0  0  0  0  0
   84.0348   -0.6694    2.5198 H   0  0  0  0  0  0  0  0  0  0  0  0
   85.9021   -1.0769    4.3891 H   0  0  0  0  0  0  0  0  0  0  0  0
   87.8257   -0.0439    0.7764 H   0  0  0  0  0  0  0  0  0  0  0  0
   89.7190   -2.7565    4.6429 H   0  0  0  0  0  0  0  0  0  0  0  0
   89.7384   -3.2453    7.0592 H   0  0  0  0  0  0  0  0  0  0  0  0
   89.3241   -2.3932    9.2562 H   0  0  0  0  0  0  0  0  0  0  0  0
   88.4227   -0.9950    9.5440 H   0  0  0  0  0  0  0  0  0  0  0  0
   87.4645    0.3195    7.7923 H   0  0  0  0  0  0  0  0  0  0  0  0
   87.4542    0.8059    5.3761 H   0  0  0  0  0  0  0  0  0  0  0  0
   91.2328   -0.6308    4.4889 H   0  0  0  0  0  0  0  0  0  0  0  0
   93.1093   -0.2913    2.5928 H   0  0  0  0  0  0  0  0  0  0  0  0
   93.0959    0.3358   -2.6442 H   0  0  0  0  0  0  0  0  0  0  0  0
   91.2288    0.7582   -4.5098 H   0  0  0  0  0  0  0  0  0  0  0  0
   89.3114    0.2770   -0.7801 H   0  0  0  0  0  0  0  0  0  0  0  0
   89.7302    2.9065   -4.6434 H   0  0  0  0  0  0  0  0  0  0  0  0
   89.7392    3.4296   -7.0517 H   0  0  0  0  0  0  0  0  0  0  0  0
   87.8405    1.5782   -9.4864 H   0  0  0  0  0  0  0  0  0  0  0  0
   88.7790    2.9497   -9.1874 H   0  0  0  0  0  0  0  0  0  0  0  0
   87.3724   -0.0681   -7.8140 H   0  0  0  0  0  0  0  0  0  0  0  0
   87.3733   -0.5897   -5.4046 H   0  0  0  0  0  0  0  0  0  0  0  0
   85.9092    1.3260   -4.3938 H   0  0  0  0  0  0  0  0  0  0  0  0
   84.0314    0.9027   -2.5153 H   0  0  0  0  0  0  0  0  0  0  0  0
  101.1651   -0.0197   -0.0034 C   0  0  0  0  0  0  0  0  0  0  0  0
  101.7893   -0.3129    1.2254 C   0  0  0  0  0  0  0  0  0  0  0  0
  101.1373   -0.6489    2.4392 C   0  0  0  0  0  0  0  0  0  0  0  0
  102.0983   -0.8288    3.3971 C   0  0  0  0  0  0  0  0  0  0  0  0
  103.3651   -0.5989    2.7962 C   0  0  0  0  0  0  0  0  0  0  0  0
  103.1280   -0.3027    1.4801 N   0  0  0  0  0  0  0  0  0  0  0  0
  104.6215   -0.6706    3.4127 C   0  0  0  0  0  0  0  0  0  0  0  0
  104.6297   -0.9467    4.8688 C   0  0  0  0  0  0  0  0  0  0  0  0
  105.2825   -2.0722    5.3781 C   0  0  0  0  0  0  0  0  0  0  0  0
  105.2921   -2.3326    6.7367 C   0  0  0  0  0  0  0  0  0  0  0  0
  104.6583   -1.4579    7.6232 C   0  0  0  0  0  0  0  0  0  0  0  0
  104.6347   -1.7341    8.9789 N   0  0  0  0  0  0  0  0  0  0  0  0
  103.9981   -0.3333    7.1215 C   0  0  0  0  0  0  0  0  0  0  0  0
  103.9843   -0.0860    5.7604 C   0  0  0  0  0  0  0  0  0  0  0  0
  105.8471   -0.5025    2.7650 C   0  0  0  0  0  0  0  0  0  0  0  0
  107.1305   -0.5214    3.4428 C   0  0  0  0  0  0  0  0  0  0  0  0
  108.0699   -0.3471    2.4896 C   0  0  0  0  0  0  0  0  0  0  0  0
  106.0271   -0.2921    1.4312 N   0  0  0  0  0  0  0  0  0  0  0  0
  107.3581   -0.2077    1.2353 C   0  0  0  0  0  0  0  0  0  0  0  0
  108.0164   -0.0167    0.0029 C   0  0  0  0  0  0  0  0  0  0  0  0
  107.3922    0.1972   -1.2422 C   0  0  0  0  0  0  0  0  0  0  0  0
  108.0444    0.3676   -2.4900 C   0  0  0  0  0  0  0  0  0  0  0  0
  107.0833    0.5785   -3.4415 C   0  0  0  0  0  0  0  0  0  0  0  0
  105.8164    0.5515   -2.7988 C   0  0  0  0  0  0  0  0  0  0  0  0
  106.0535    0.3054   -1.4724 N   0  0  0  0  0  0  0  0  0  0  0  0
  104.5601    0.7265   -3.3943 C   0  0  0  0  0  0  0  0  0  0  0  0
  104.5534    1.0475   -4.8411 C   0  0  0  0  0  0  0  0  0  0  0  0
  105.1979    2.1915   -5.3189 C   0  0  0  0  0  0  0  0  0  0  0  0
  105.1885    2.5009   -6.6672 C   0  0  0  0  0  0  0  0  0  0  0  0
  104.5336    1.6634   -7.5741 C   0  0  0  0  0  0  0  0  0  0  0  0
  104.5627    1.9435   -8.9289 N   0  0  0  0  0  0  0  0  0  0  0  0
  103.9001    0.5091   -7.1064 C   0  0  0  0  0  0  0  0  0  0  0  0
  103.9053    0.2128   -5.7551 C   0  0  0  0  0  0  0  0  0  0  0  0
  103.3343    0.6230   -2.7334 C   0  0  0  0  0  0  0  0  0  0  0  0
  102.0507    0.8694   -3.3647 C   0  0  0  0  0  0  0  0  0  0  0  0
  101.1113    0.6529   -2.4202 C   0  0  0  0  0  0  0  0  0  0  0  0
  101.8232    0.2898   -1.2116 C   0  0  0  0  0  0  0  0  0  0  0  0
  103.1544    0.2913   -1.4246 N   0  0  0  0  0  0  0  0  0  0  0  0
  100.0698   -0.7444    2.5555 H   0  0  0  0  0  0  0  0  0  0  0  0
  101.9443   -1.1084    4.4265 H   0  0  0  0  0  0  0  0  0  0  0  0
  103.8515   -0.1115    0.7951 H   0  0  0  0  0  0  0  0  0  0  0  0
  105.7691   -2.7605    4.6959 H   0  0  0  0  0  0  0  0  0  0  0  0
  105.7929   -3.2154    7.1187 H   0  0  0  0  0  0  0  0  0  0  0  0
  105.3745   -2.3358    9.3042 H   0  0  0  0  0  0  0  0  0  0  0  0
  104.4660   -0.9383    9.5732 H   0  0  0  0  0  0  0  0  0  0  0  0
  103.5010    0.3475    7.8040 H   0  0  0  0  0  0  0  0  0  0  0  0
  103.4866    0.8001    5.3814 H   0  0  0  0  0  0  0  0  0  0  0  0
  107.2729   -0.6365    4.5051 H   0  0  0  0  0  0  0  0  0  0  0  0
  109.1415   -0.3019    2.6005 H   0  0  0  0  0  0  0  0  0  0  0  0
  109.1120    0.3270   -2.6342 H   0  0  0  0  0  0  0  0  0  0  0  0
  107.2374    0.7272   -4.4977 H   0  0  0  0  0  0  0  0  0  0  0  0
  105.3300    0.2104   -0.7676 H   0  0  0  0  0  0  0  0  0  0  0  0
  105.6918    2.8573   -4.6194 H   0  0  0  0  0  0  0  0  0  0  0  0
  105.6851    3.3965   -7.0243 H   0  0  0  0  0  0  0  0  0  0  0  0
  103.8263    1.5172   -9.4683 H   0  0  0  0  0  0  0  0  0  0  0  0
  104.7310    2.9093   -9.1611 H   0  0  0  0  0  0  0  0  0  0  0  0
  103.4033   -0.1527   -7.8073 H   0  0  0  0  0  0  0  0  0  0  0  0
  103.4192   -0.6897   -5.4013 H   0  0  0  0  0  0  0  0  0  0  0  0
  101.9083    1.1807   -4.3869 H   0  0  0  0  0  0  0  0  0  0  0  0
  100.0395    0.7358   -2.5050 H   0  0  0  0  0  0  0  0  0  0  0  0
  117.1879   -0.0111   -0.0072 C   0  0  0  0  0  0  0  0  0  0  0  0
  117.8120   -0.3050    1.2215 C   0  0  0  0  0  0  0  0  0  0  0  0
  117.1596   -0.6405    2.4353 C   0  0  0  0  0  0  0  0  0  0  0  0
  118.1204   -0.8208    3.3933 C   0  0  0  0  0  0  0  0  0  0  0  0
  119.3875   -0.5920    2.7923 C   0  0  0  0  0  0  0  0  0  0  0  0
  119.1506   -0.2959    1.4762 N   0  0  0  0  0  0  0  0  0  0  0  0
  120.6437   -0.6655    3.4089 C   0  0  0  0  0  0  0  0  0  0  0  0
  120.6500   -0.9406    4.8651 C   0  0  0  0  0  0  0  0  0  0  0  0
  121.2984   -2.0678    5.3763 C   0  0  0  0  0  0  0  0  0  0  0  0
  121.3029   -2.3285    6.7348 C   0  0  0  0  0  0  0  0  0  0  0  0
  120.6683   -1.4525    7.6195 C   0  0  0  0  0  0  0  0  0  0  0  0
  120.6383   -1.7296    8.9749 N   0  0  0  0  0  0  0  0  0  0  0  0
  120.0133   -0.3255    7.1160 C   0  0  0  0  0  0  0  0  0  0  0  0
  120.0046   -0.0780    5.7549 C   0  0  0  0  0  0  0  0  0  0  0  0
  121.8695   -0.5001    2.7608 C   0  0  0  0  0  0  0  0  0  0  0  0
  123.1531   -0.5226    3.4381 C   0  0  0  0  0  0  0  0  0  0  0  0
  124.0925   -0.3497    2.4847 C   0  0  0  0  0  0  0  0  0  0  0  0
  122.0495   -0.2890    1.4272 N   0  0  0  0  0  0  0  0  0  0  0  0
  123.3806   -0.2066    1.2309 C   0  0  0  0  0  0  0  0  0  0  0  0
  124.0389   -0.0144   -0.0013 C   0  0  0  0  0  0  0  0  0  0  0  0
  123.4150    0.2006   -1.2464 C   0  0  0  0  0  0  0  0  0  0  0  0
  124.0672    0.3702   -2.4942 C   0  0  0  0  0  0  0  0  0  0  0  0
  123.1064    0.5824   -3.4457 C   0  0  0  0  0  0  0  0  0  0  0  0
  121.8394    0.5564   -2.8031 C   0  0  0  0  0  0  0  0  0  0  0  0
  122.0764    0.3100   -1.4767 N   0  0  0  0  0  0  0  0  0  0  0  0
  120.5831    0.7326   -3.3984 C   0  0  0  0  0  0  0  0  0  0  0  0
  120.5751    1.0523   -4.8454 C   0  0  0  0  0  0  0  0  0  0  0  0
  121.2203    2.1946   -5.3261 C   0  0  0  0  0  0  0  0  0  0  0  0
  121.2068    2.5031   -6.6747 C   0  0  0  0  0  0  0  0  0  0  0  0
  120.5469    1.6665   -7.5787 C   0  0  0  0  0  0  0  0  0  0  0  0
  120.5708    1.9462   -8.9337 N   0  0  0  0  0  0  0  0  0  0  0  0
  119.9132    0.5134   -7.1082 C   0  0  0  0  0  0  0  0  0  0  0  0
  119.9227    0.2180   -5.7568 C   0  0  0  0  0  0  0  0  0  0  0  0
  119.3574    0.6310   -2.7370 C   0  0  0  0  0  0  0  0  0  0  0  0
  118.0740    0.8796   -3.3678 C   0  0  0  0  0  0  0  0  0  0  0  0
  117.1345    0.6634   -2.4233 C   0  0  0  0  0  0  0  0  0  0  0  0
  117.8463    0.2986   -1.2152 C   0  0  0  0  0  0  0  0  0  0  0  0
  119.1774    0.2988   -1.4283 N   0  0  0  0  0  0  0  0  0  0  0  0
  116.0920   -0.7353    2.5515 H   0  0  0  0  0  0  0  0  0  0  0  0
  117.9661   -1.1001    4.4227 H   0  0  0  0  0  0  0  0  0  0  0  0
  119.8743   -0.1055    0.7911 H   0  0  0  0  0  0  0  0  0  0  0  0
  121.7852   -2.7574    4.6955 H   0  0  0  0  0  0  0  0  0  0  0  0
  121.7998   -3.2129    7.1183 H   0  0  0  0  0  0  0  0  0  0  0  0
  121.3747   -2.3338    9.3030 H   0  0  0  0  0  0  0  0  0  0  0  0
  120.4690   -0.9339    9.5691 H   0  0  0  0  0  0  0  0  0  0  0  0
  119.5159    0.3565    7.7971 H   0  0  0  0  0  0  0  0  0  0  0  0
  119.5106    0.8095    5.3744 H   0  0  0  0  0  0  0  0  0  0  0  0
  123.2955   -0.6393    4.5003 H   0  0  0  0  0  0  0  0  0  0  0  0
  125.1643   -0.3072    2.5952 H   0  0  0  0  0  0  0  0  0  0  0  0
  125.1348    0.3285   -2.6385 H   0  0  0  0  0  0  0  0  0  0  0  0
  123.2606    0.7313   -4.5019 H   0  0  0  0  0  0  0  0  0  0  0  0
  121.3527    0.2153   -0.7720 H   0  0  0  0  0  0  0  0  0  0  0  0
  121.7176    2.8601   -4.6288 H   0  0  0  0  0  0  0  0  0  0  0  0
  121.7037    3.3976   -7.0341 H   0  0  0  0  0  0  0  0  0  0  0  0
  119.8313    1.5210   -9.4698 H   0  0  0  0  0  0  0  0  0  0  0  0
  120.7395    2.9117   -9.1668 H   0  0  0  0  0  0  0  0  0  0  0  0
  119.4127   -0.1479   -7.8070 H   0  0  0  0  0  0  0  0  0  0  0  0
  119.4361   -0.6834   -5.4007 H   0  0  0  0  0  0  0  0  0  0  0  0
  117.9316    1.1924   -4.3895 H   0  0  0  0  0  0  0  0  0  0  0  0
  116.0628    0.7478   -2.5077 H   0  0  0  0  0  0  0  0  0  0  0  0
  133.2108   -0.0123    0.0001 C   0  0  0  0  0  0  0  0  0  0  0  0
  133.8316   -0.3092    1.2296 C   0  0  0  0  0  0  0  0  0  0  0  0
  133.1761   -0.6465    2.4412 C   0  0  0  0  0  0  0  0  0  0  0  0
  134.1345   -0.8306    3.4007 C   0  0  0  0  0  0  0  0  0  0  0  0
  135.4033   -0.6023    2.8031 C   0  0  0  0  0  0  0  0  0  0  0  0
  135.1697   -0.3025    1.4871 N   0  0  0  0  0  0  0  0  0  0  0  0
  136.6578   -0.6810    3.4223 C   0  0  0  0  0  0  0  0  0  0  0  0
  136.6586   -0.9591    4.8780 C   0  0  0  0  0  0  0  0  0  0  0  0
  137.2996   -2.0902    5.3897 C   0  0  0  0  0  0  0  0  0  0  0  0
  137.2966   -2.3537    6.7478 C   0  0  0  0  0  0  0  0  0  0  0  0
  136.6614   -1.4771    7.6313 C   0  0  0  0  0  0  0  0  0  0  0  0
  136.6228   -1.7574    8.9858 N   0  0  0  0  0  0  0  0  0  0  0  0
  136.0141   -0.3459    7.1273 C   0  0  0  0  0  0  0  0  0  0  0  0
  136.0131   -0.0954    5.7667 C   0  0  0  0  0  0  0  0  0  0  0  0
  137.8860   -0.5180    2.7777 C   0  0  0  0  0  0  0  0  0  0  0  0
  139.1679   -0.5499    3.4579 C   0  0  0  0  0  0  0  0  0  0  0  0
  140.1103   -0.3756    2.5077 C   0  0  0  0  0  0  0  0  0  0  0  0
  138.0698   -0.3003    1.4459 N   0  0  0  0  0  0  0  0  0  0  0  0
  139.4020   -0.2217    1.2530 C   0  0  0  0  0  0  0  0  0  0  0  0
  140.0635   -0.0191    0.0246 C   0  0  0  0  0  0  0  0  0  0  0  0
  139.4431    0.2100   -1.2194 C   0  0  0  0  0  0  0  0  0  0  0  0
  140.0988    0.3911   -2.4640 C   0  0  0  0  0  0  0  0  0  0  0  0
  139.1404    0.6073   -3.4169 C   0  0  0  0  0  0  0  0  0  0  0  0
  137.8714    0.5729   -2.7786 C   0  0  0  0  0  0  0  0  0  0  0  0
  138.1049    0.3188   -1.4531 N   0  0  0  0  0  0  0  0  0  0  0  0
  136.6164    0.7465   -3.3774 C   0  0  0  0  0  0  0  0  0  0  0  0
  136.6108    1.0676   -4.8243 C   0  0  0  0  0  0  0  0  0  0  0  0
  137.2493    2.2144   -5.3031 C   0  0  0  0  0  0  0  0  0  0  0  0
  137.2363    2.5233   -6.6517 C   0  0  0  0  0  0  0  0  0  0  0  0
  136.5838    1.6828   -7.5573 C   0  0  0  0  0  0  0  0  0  0  0  0
  136.6079    1.9634   -8.9122 N   0  0  0  0  0  0  0  0  0  0  0  0
  135.9572    0.5250   -7.0886 C   0  0  0  0  0  0  0  0  0  0  0  0
  135.9661    0.2292   -5.7373 C   0  0  0  0  0  0  0  0  0  0  0  0
  135.3888    0.6393   -2.7206 C   0  0  0  0  0  0  0  0  0  0  0  0
  134.1070    0.8863   -3.3556 C   0  0  0  0  0  0  0  0  0  0  0  0
  133.1646    0.6667   -2.4149 C   0  0  0  0  0  0  0  0  0  0  0  0
  133.8727    0.3006   -1.2051 C   0  0  0  0  0  0  0  0  0  0  0  0
  135.2046    0.3040   -1.4133 N   0  0  0  0  0  0  0  0  0  0  0  0
  132.1081   -0.7400    2.5548 H   0  0  0  0  0  0  0  0  0  0  0  0
  133.9775   -1.1123    4.4291 H   0  0  0  0  0  0  0  0  0  0  0  0
  135.8950   -0.1111    0.8041 H   0  0  0  0  0  0  0  0  0  0  0  0
  137.7864   -2.7807    4.7098 H   0  0  0  0  0  0  0  0  0  0  0  0
  137.7877   -3.2412    7.1317 H   0  0  0  0  0  0  0  0  0  0  0  0
  137.3549   -2.3655    9.3165 H   0  0  0  0  0  0  0  0  0  0  0  0
  136.4536   -0.9624    9.5811 H   0  0  0  0  0  0  0  0  0  0  0  0
  135.5164    0.3368    7.8074 H   0  0  0  0  0  0  0  0  0  0  0  0
  135.5248    0.7950    5.3858 H   0  0  0  0  0  0  0  0  0  0  0  0
  139.3073   -0.6735    4.5196 H   0  0  0  0  0  0  0  0  0  0  0  0
  141.1820   -0.3382    2.6210 H   0  0  0  0  0  0  0  0  0  0  0  0
  141.1669    0.3533   -2.6053 H   0  0  0  0  0  0  0  0  0  0  0  0
  139.2975    0.7645   -4.4715 H   0  0  0  0  0  0  0  0  0  0  0  0
  137.3793    0.2166   -0.7515 H   0  0  0  0  0  0  0  0  0  0  0  0
  137.7407    2.8829   -4.6046 H   0  0  0  0  0  0  0  0  0  0  0  0
  137.7277    3.4214   -7.0097 H   0  0  0  0  0  0  0  0  0  0  0  0
  135.8721    1.5332   -9.4495 H   0  0  0  0  0  0  0  0  0  0  0  0
  136.7695    2.9303   -9.1443 H   0  0  0  0  0  0  0  0  0  0  0  0
  135.4625   -0.1393   -7.7887 H   0  0  0  0  0  0  0  0  0  0  0  0
  135.4847   -0.6755   -5.3824 H   0  0  0  0  0  0  0  0  0  0  0  0
  133.9677    1.2005   -4.3774 H   0  0  0  0  0  0  0  0  0  0  0  0
  132.0930    0.7490   -2.5030 H   0  0  0  0  0  0  0  0  0  0  0  0
  1  2  4  0  0  0  0
  2  3  4  0  0  0  0
  3  4  2  0  0  0  0
  4  5  4  0  0  0  0
  2  6  4  0  0  0  0
  5  6  4  0  0  0  0
  5  7  4  0  0  0  0
  7  8  1  0  0  0  0
  8  9  4  0  0  0  0
  9 10  4  0  0  0  0
 10 11  4  0  0  0  0
 11 12  1  0  0  0  0
 11 13  4  0  0  0  0
  8 14  4  0  0  0  0
 13 14  4  0  0  0  0
  7 15  4  0  0  0  0
 15 16  1  0  0  0  0
 16 17  2  0  0  0  0
 15 18  4  0  0  0  0
 17 19  1  0  0  0  0
 18 19  4  0  0  0  0
 19 20  4  0  0  0  0
 20 21  4  0  0  0  0
 21 22  4  0  0  0  0
 22 23  2  0  0  0  0
 23 24  4  0  0  0  0
 21 25  4  0  0  0  0
 24 25  4  0  0  0  0
 24 26  4  0  0  0  0
 26 27  1  0  0  0  0
 27 28  4  0  0  0  0
 28 29  4  0  0  0  0
 29 30  4  0  0  0  0
 30 31  1  0  0  0  0
 30 32  4  0  0  0  0
 27 33  4  0  0  0  0
 32 33  4  0  0  0  0
 26 34  4  0  0  0  0
 34 35  1  0  0  0  0
 35 36  2  0  0  0  0
  1 37  4  0  0  0  0
 36 37  1  0  0  0  0
 34 38  4  0  0  0  0
 37 38  4  0  0  0  0
  1 39  1  0  0  0  0
  3 40  1  0  0  0  0
  4 41  1  0  0  0  0
  6 42  1  0  0  0  0
  9 43  1  0  0  0  0
 10 44  1  0  0  0  0
 12 45  1  0  0  0  0
 12 46  1  0  0  0  0
 13 47  1  0  0  0  0
 14 48  1  0  0  0  0
 16 49  1  0  0  0  0
 17 50  1  0  0  0  0
 22 51  1  0  0  0  0
 23 52  1  0  0  0  0
 25 53  1  0  0  0  0
 28 54  1  0  0  0  0
 29 55  1  0  0  0  0
 31 56  1  0  0  0  0
 31 57  1  0  0  0  0
 32 58  1  0  0  0  0
 33 59  1  0  0  0  0
 35 60  1  0  0  0  0
 36 61  1  0  0  0  0
 62 63  4  0  0  0  0
 63 64  4  0  0  0  0
 64 65  2  0  0  0  0
 65 66  4  0  0  0  0
 63 67  4  0  0  0  0
 66 67  4  0  0  0  0
 66 68  4  0  0  0  0
 68 69  1  0  0  0  0
 69 70  4  0  0  0  0
 70 71  4  0  0  0  0
 71 72  4  0  0  0  0
 72 73  1  0  0  0  0
 72 74  4  0  0  0  0
 69 75  4  0  0  0  0
 74 75  4  0  0  0  0
 68 76  4  0  0  0  0
 76 77  1  0  0  0  0
 77 78  2  0  0  0  0
 76 79  4  0  0  0  0
 78 80  1  0  0  0  0
 79 80  4  0  0  0  0
 80 81  4  0  0  0  0
 81 82  4  0  0  0  0
 82 83  4  0  0  0  0
 83 84  2  0  0  0  0
 84 85  4  0  0  0  0
 82 86  4  0  0  0  0
 85 86  4  0  0  0  0
 85 87  4  0  0  0  0
 87 88  1  0  0  0  0
 88 89  4  0  0  0  0
 89 90  4  0  0  0  0
 90 91  4  0  0  0  0
 91 92  1  0  0  0  0
 91 93  4  0  0  0  0
 88 94  4  0  0  0  0
 93 94  4  0  0  0  0
 87 95  4  0  0  0  0
 95 96  1  0  0  0  0
 96 97  2  0  0  0  0
 62 98  4  0  0  0  0
 97 98  1  0  0  0  0
 95 99  4  0  0  0  0
 98 99  4  0  0  0  0
 62100  1  0  0  0  0
 64101  1  0  0  0  0
 65102  1  0  0  0  0
 67103  1  0  0  0  0
 70104  1  0  0  0  0
 71105  1  0  0  0  0
 73106  1  0  0  0  0
 73107  1  0  0  0  0
 74108  1  0  0  0  0
 75109  1  0  0  0  0
 77110  1  0  0  0  0
 78111  1  0  0  0  0
 83112  1  0  0  0  0
 84113  1  0  0  0  0
 86114  1  0  0  0  0
 89115  1  0  0  0  0
 90116  1  0  0  0  0
 92117  1  0  0  0  0
 92118  1  0  0  0  0
 93119  1  0  0  0  0
 94120  1  0  0  0  0
 96121  1  0  0  0  0
 97122  1  0  0  0  0
123124  3  0  0  0  0
124125  4  0  0  0  0
 20126  4  0  0  0  0
125126  3  0  0  0  0
123127  4  0  0  0  0
127128  3  0  0  0  0
129130  3  0  0  0  0
130131  4  0  0  0  0
131132  3  0  0  0  0
129133  4  0  0  0  0
133134  3  0  0  0  0
135136  3  0  0  0  0
136137  4  0  0  0  0
137138  3  0  0  0  0
135139  4  0  0  0  0
139140  3  0  0  0  0
141142  3  0  0  0  0
142143  4  0  0  0  0
143144  3  0  0  0  0
141145  4  0  0  0  0
145146  3  0  0  0  0
147148  3  0  0  0  0
148149  4  0  0  0  0
149150  3  0  0  0  0
147151  4  0  0  0  0
 81152  4  0  0  0  0
151152  3  0  0  0  0
128153  4  0  0  0  0
153154  4  0  0  0  0
154155  4  0  0  0  0
155156  2  0  0  0  0
156157  4  0  0  0  0
154158  4  0  0  0  0
157158  4  0  0  0  0
157159  4  0  0  0  0
159160  1  0  0  0  0
160161  4  0  0  0  0
161162  4  0  0  0  0
162163  4  0  0  0  0
163164  1  0  0  0  0
163165  4  0  0  0  0
160166  4  0  0  0  0
165166  4  0  0  0  0
159167  4  0  0  0  0
167168  1  0  0  0  0
168169  2  0  0  0  0
167170  4  0  0  0  0
169171  1  0  0  0  0
170171  4  0  0  0  0
132172  4  0  0  0  0
171172  4  0  0  0  0
172173  4  0  0  0  0
173174  4  0  0  0  0
174175  2  0  0  0  0
175176  4  0  0  0  0
173177  4  0  0  0  0
176177  4  0  0  0  0
176178  4  0  0  0  0
178179  1  0  0  0  0
179180  4  0  0  0  0
180181  4  0  0  0  0
181182  4  0  0  0  0
182183  1  0  0  0  0
182184  4  0  0  0  0
179185  4  0  0  0  0
184185  4  0  0  0  0
178186  4  0  0  0  0
186187  1  0  0  0  0
187188  2  0  0  0  0
153189  4  0  0  0  0
188189  1  0  0  0  0
186190  4  0  0  0  0
189190  4  0  0  0  0
155191  1  0  0  0  0
156192  1  0  0  0  0
158193  1  0  0  0  0
161194  1  0  0  0  0
162195  1  0  0  0  0
164196  1  0  0  0  0
164197  1  0  0  0  0
165198  1  0  0  0  0
166199  1  0  0  0  0
168200  1  0  0  0  0
169201  1  0  0  0  0
174202  1  0  0  0  0
175203  1  0  0  0  0
177204  1  0  0  0  0
180205  1  0  0  0  0
181206  1  0  0  0  0
183207  1  0  0  0  0
183208  1  0  0  0  0
184209  1  0  0  0  0
185210  1  0  0  0  0
187211  1  0  0  0  0
188212  1  0  0  0  0
134213  4  0  0  0  0
213214  4  0  0  0  0
214215  4  0  0  0  0
215216  2  0  0  0  0
216217  4  0  0  0  0
214218  4  0  0  0  0
217218  4  0  0  0  0
217219  4  0  0  0  0
219220  1  0  0  0  0
220221  4  0  0  0  0
221222  4  0  0  0  0
222223  4  0  0  0  0
223224  1  0  0  0  0
223225  4  0  0  0  0
220226  4  0  0  0  0
225226  4  0  0  0  0
219227  4  0  0  0  0
227228  1  0  0  0  0
228229  2  0  0  0  0
227230  4  0  0  0  0
229231  1  0  0  0  0
230231  4  0  0  0  0
138232  4  0  0  0  0
231232  4  0  0  0  0
232233  4  0  0  0  0
233234  4  0  0  0  0
234235  2  0  0  0  0
235236  4  0  0  0  0
233237  4  0  0  0  0
236237  4  0  0  0  0
236238  4  0  0  0  0
238239  1  0  0  0  0
239240  4  0  0  0  0
240241  4  0  0  0  0
241242  4  0  0  0  0
242243  1  0  0  0  0
242244  4  0  0  0  0
239245  4  0  0  0  0
244245  4  0  0  0  0
238246  4  0  0  0  0
246247  1  0  0  0  0
247248  2  0  0  0  0
213249  4  0  0  0  0
248249  1  0  0  0  0
246250  4  0  0  0  0
249250  4  0  0  0  0
215251  1  0  0  0  0
216252  1  0  0  0  0
218253  1  0  0  0  0
221254  1  0  0  0  0
222255  1  0  0  0  0
224256  1  0  0  0  0
224257  1  0  0  0  0
225258  1  0  0  0  0
226259  1  0  0  0  0
228260  1  0  0  0  0
229261  1  0  0  0  0
234262  1  0  0  0  0
235263  1  0  0  0  0
237264  1  0  0  0  0
240265  1  0  0  0  0
241266  1  0  0  0  0
243267  1  0  0  0  0
243268  1  0  0  0  0
244269  1  0  0  0  0
245270  1  0  0  0  0
247271  1  0  0  0  0
248272  1  0  0  0  0
140273  4  0  0  0  0
273274  4  0  0  0  0
274275  4  0  0  0  0
275276  2  0  0  0  0
276277  4  0  0  0  0
274278  4  0  0  0  0
277278  4  0  0  0  0
277279  4  0  0  0  0
279280  1  0  0  0  0
280281  4  0  0  0  0
281282  4  0  0  0  0
282283  4  0  0  0  0
283284  1  0  0  0  0
283285  4  0  0  0  0
280286  4  0  0  0  0
285286  4  0  0  0  0
279287  4  0  0  0  0
287288  1  0  0  0  0
288289  2  0  0  0  0
287290  4  0  0  0  0
289291  1  0  0  0  0
290291  4  0  0  0  0
144292  4  0  0  0  0
291292  4  0  0  0  0
292293  4  0  0  0  0
293294  4  0  0  0  0
294295  2  0  0  0  0
295296  4  0  0  0  0
293297  4  0  0  0  0
296297  4  0  0  0  0
296298  4  0  0  0  0
298299  1  0  0  0  0
299300  4  0  0  0  0
300301  4  0  0  0  0
301302  4  0  0  0  0
302303  1  0  0  0  0
302304  4  0  0  0  0
299305  4  0  0  0  0
304305  4  0  0  0  0
298306  4  0  0  0  0
306307  1  0  0  0  0
307308  2  0  0  0  0
273309  4  0  0  0  0
308309  1  0  0  0  0
306310  4  0  0  0  0
309310  4  0  0  0  0
275311  1  0  0  0  0
276312  1  0  0  0  0
278313  1  0  0  0  0
281314  1  0  0  0  0
282315  1  0  0  0  0
284316  1  0  0  0  0
284317  1  0  0  0  0
285318  1  0  0  0  0
286319  1  0  0  0  0
288320  1  0  0  0  0
289321  1  0  0  0  0
294322  1  0  0  0  0
295323  1  0  0  0  0
297324  1  0  0  0  0
300325  1  0  0  0  0
301326  1  0  0  0  0
303327  1  0  0  0  0
303328  1  0  0  0  0
304329  1  0  0  0  0
305330  1  0  0  0  0
307331  1  0  0  0  0
308332  1  0  0  0  0
146333  4  0  0  0  0
333334  4  0  0  0  0
334335  4  0  0  0  0
335336  2  0  0  0  0
336337  4  0  0  0  0
334338  4  0  0  0  0
337338  4  0  0  0  0
337339  4  0  0  0  0
339340  1  0  0  0  0
340341  4  0  0  0  0
341342  4  0  0  0  0
342343  4  0  0  0  0
343344  1  0  0  0  0
343345  4  0  0  0  0
340346  4  0  0  0  0
345346  4  0  0  0  0
339347  4  0  0  0  0
347348  1  0  0  0  0
348349  2  0  0  0  0
347350  4  0  0  0  0
349351  1  0  0  0  0
350351  4  0  0  0  0
150352  4  0  0  0  0
351352  4  0  0  0  0
352353  4  0  0  0  0
353354  4  0  0  0  0
354355  2  0  0  0  0
355356  4  0  0  0  0
353357  4  0  0  0  0
356357  4  0  0  0  0
356358  4  0  0  0  0
358359  1  0  0  0  0
359360  4  0  0  0  0
360361  4  0  0  0  0
361362  4  0  0  0  0
362363  1  0  0  0  0
362364  4  0  0  0  0
359365  4  0  0  0  0
364365  4  0  0  0  0
358366  4  0  0  0  0
366367  1  0  0  0  0
367368  2  0  0  0  0
333369  4  0  0  0  0
368369  1  0  0  0  0
366370  4  0  0  0  0
369370  4  0  0  0  0
335371  1  0  0  0  0
336372  1  0  0  0  0
338373  1  0  0  0  0
341374  1  0  0  0  0
342375  1  0  0  0  0
344376  1  0  0  0  0
344377  1  0  0  0  0
345378  1  0  0  0  0
346379  1  0  0  0  0
348380  1  0  0  0  0
349381  1  0  0  0  0
354382  1  0  0  0  0
355383  1  0  0  0  0
357384  1  0  0  0  0
360385  1  0  0  0  0
361386  1  0  0  0  0
363387  1  0  0  0  0
363388  1  0  0  0  0
364389  1  0  0  0  0
365390  1  0  0  0  0
367391  1  0  0  0  0
368392  1  0  0  0  0
M  END
