514

C 80.556539 -0.055088 0.072603
C 81.285138 1.224980 0.585653
C 80.675013 2.331448 1.131131
C 81.696609 3.277501 1.404279
C 82.896541 2.717751 1.011287
N 82.638273 1.447998 0.558584
C 84.320076 3.416047 1.042309
C 85.448397 2.703468 0.776744
C 86.752195 3.332514 0.724823
C 87.652822 2.406478 0.417976
N 85.643894 1.375348 0.501502
C 86.974046 1.133353 0.274668
C 87.641374 -0.011598 -0.029940
C 86.866788 -1.392841 -0.139178
C 87.414358 -2.649452 0.033969
C 86.389770 -3.599084 -0.202461
C 85.242194 -2.896563 -0.500928
C 83.829459 -3.521793 -0.863473
C 83.798027 -4.908198 -1.383898
C 83.434714 -5.972795 -0.549409
C 83.415265 -7.286720 -1.033297
C 82.983737 -8.413349 -0.145500
C 83.750251 -7.524724 -2.374000
C 84.132886 -6.472290 -3.217837
C 84.463232 -6.724176 -4.656963
C 84.144891 -5.165051 -2.714975
C 82.704231 -2.775991 -0.709705
C 81.379893 -3.275626 -1.034844
C 80.495348 -2.319779 -0.766451
C 81.219918 -1.174575 -0.272032
N 82.541618 -1.493792 -0.263463
N 85.529499 -1.554740 -0.409099
C 84.359208 4.871810 1.321467
C 84.629842 5.335899 2.614500
C 84.658130 6.708625 2.889968
C 84.994727 7.189076 4.268109
C 84.428486 7.618213 1.847689
C 84.139761 7.169305 0.550860
C 83.921593 8.142069 -0.567360
C 84.117280 5.792505 0.295385
H 79.477786 -0.021069 -0.021188
H 79.615735 2.450938 1.298180
H 81.568685 4.266212 1.819533
H 83.339927 0.782497 0.242321
H 86.963383 4.373907 0.890849
H 88.705375 2.591944 0.307210
H 88.440526 -2.863678 0.290740
H 86.478303 -4.674600 -0.162479
H 83.161971 -5.751103 0.481051
H 81.930622 -8.652104 -0.327589
H 83.589460 -9.306882 -0.333177
H 83.106216 -8.153815 0.911880
H 83.712660 -8.538911 -2.763412
H 85.208049 -6.007568 -5.017462
H 84.884873 -7.725653 -4.792130
H 83.561170 -6.635212 -5.269593
H 84.418561 -4.324316 -3.350333
H 81.149900 -4.249413 -1.428255
H 79.430637 -2.379609 -0.900817
H 84.842187 -0.808377 -0.476008
H 84.825641 4.604382 3.396755
H 84.605129 6.502441 5.027268
H 84.549932 8.170853 4.459756
H 86.079631 7.266473 4.382890
H 84.474834 8.685587 2.047036
H 83.507347 9.083809 -0.192253
H 84.869482 8.350564 -1.072053
H 83.210375 7.743705 -1.298297
H 83.916402 5.412567 -0.704947
C 181.303233 -0.025868 0.080527
C 180.574634 -1.389767 -0.123369
C 181.184759 -2.620229 -0.211579
C 180.163162 -3.574675 -0.453776
C 178.963231 -2.893072 -0.510159
N 179.221499 -1.568560 -0.259394
C 177.539696 -3.511382 -0.836152
C 176.411374 -2.762259 -0.705357
C 175.107577 -3.278904 -1.067947
C 174.206950 -2.324710 -0.864946
N 176.215878 -1.477025 -0.271956
C 174.885726 -1.153588 -0.345465
C 174.218397 -0.011598 -0.029940
C 174.992984 1.235619 0.573562
C 174.445414 2.232622 1.357806
C 175.470002 3.171607 1.633498
C 176.617578 2.716100 1.021018
C 178.030312 3.438834 1.023989
C 178.061744 4.898229 1.275240
C 178.425058 5.395424 2.533229
C 178.444506 6.773810 2.779395
C 178.876034 7.297609 4.114726
C 178.109521 7.656507 1.742585
C 177.726886 7.174531 0.482672
C 177.396540 8.118930 -0.632066
C 177.714881 5.792330 0.256259
C 179.155541 2.717516 0.779929
C 180.479879 3.312962 0.751735
C 181.364424 2.352465 0.500488
C 180.639854 1.114368 0.348644
N 179.318153 1.385527 0.517301
N 176.330273 1.511699 0.422405
C 177.500564 -4.908752 -1.330657
C 177.229930 -5.962481 -0.449200
C 177.201641 -7.286324 -0.904941
C 176.865045 -8.397169 0.041700
C 177.431285 -7.544773 -2.263948
C 177.720010 -6.502227 -3.156350
C 177.938179 -6.776833 -4.612811
C 177.742492 -5.184968 -2.681296
H 182.381986 -0.007846 -0.017603
H 182.244037 -2.807740 -0.127778
H 180.291087 -4.637724 -0.594883
H 178.519845 -0.834454 -0.196136
H 174.896389 -4.261514 -1.450756
H 173.154396 -2.428813 -1.054232
H 173.419245 2.287786 1.687626
H 175.381469 4.079594 2.211332
H 178.697801 4.683533 3.310535
H 179.929150 7.595646 4.078196
H 178.270311 8.163552 4.404154
H 178.753556 6.539461 4.896149
H 178.147111 8.728488 1.918863
H 176.651723 7.682604 -1.305197
H 176.974898 9.051503 -0.242790
H 178.298601 8.351641 -1.205716
H 177.441211 5.387734 -0.716787
H 180.709872 4.352097 0.904154
H 182.429135 2.471979 0.414753
H 177.017585 0.901378 -0.012386
H 177.034131 -5.726351 0.595445
H 177.254643 -8.188105 1.043739
H 177.309840 -9.341272 -0.288880
H 175.780140 -8.521948 0.101658
H 177.384937 -8.566637 -2.631124
H 178.352425 -7.779064 -4.764836
H 176.990290 -6.701806 -5.153695
H 178.649397 -6.063784 -5.042374
H 177.943370 -4.351728 -3.352660
C 93.489770 -0.010496 -0.021450
C 92.280830 -0.023951 -0.029897
C 90.859301 -0.015131 -0.041880
C 89.647632 -0.007693 -0.031017
C 94.906374 -0.017171 -0.020916
C 96.127070 -0.007693 -0.031017
C 108.707354 -0.010496 -0.021450
C 107.498414 -0.023951 -0.029897
C 106.076885 -0.015131 -0.041880
C 104.865216 -0.007693 -0.031017
C 110.123958 -0.017171 -0.020916
C 111.344654 -0.007693 -0.031017
C 123.924938 -0.010496 -0.021450
C 122.715998 -0.023951 -0.029897
C 121.294469 -0.015131 -0.041880
C 120.082800 -0.007693 -0.031017
C 125.341542 -0.017171 -0.020916
C 126.562238 -0.007693 -0.031017
C 139.142522 -0.010496 -0.021450
C 137.933582 -0.023951 -0.029897
C 136.512054 -0.015131 -0.041880
C 135.300384 -0.007693 -0.031017
C 140.559126 -0.017171 -0.020916
C 141.779822 -0.007693 -0.031017
C 154.360106 -0.010496 -0.021450
C 153.151167 -0.023951 -0.029897
C 151.729638 -0.015131 -0.041880
C 150.517968 -0.007693 -0.031017
C 155.776710 -0.017171 -0.020916
C 156.997406 -0.007693 -0.031017
C 169.577690 -0.010496 -0.021450
C 168.368751 -0.023951 -0.029897
C 166.947222 -0.015131 -0.041880
C 165.735552 -0.007693 -0.031017
C 170.994294 -0.017171 -0.020916
C 172.214990 -0.007693 -0.031017
C 96.919382 0.005522 0.015436
C 97.710767 -1.134249 0.781390
C 97.197758 -2.000427 1.725687
C 98.234491 -2.899468 2.083662
C 99.350495 -2.549618 1.352911
N 99.042242 -1.430688 0.620000
C 100.743313 -3.304670 1.347005
C 101.877307 -2.639135 1.002916
C 103.165385 -3.296728 0.923488
C 104.072373 -2.397947 0.556219
N 102.084069 -1.330857 0.662005
C 103.408798 -1.120682 0.386553
C 104.072560 0.005522 0.015436
C 103.280468 1.368531 -0.147076
C 103.790929 2.641252 0.012320
C 102.754456 3.556135 -0.303756
C 101.641085 2.814129 -0.638274
C 100.249117 3.382178 -1.136979
C 100.254380 4.692876 -1.829308
C 99.826667 5.848797 -1.163773
C 99.847366 7.093576 -1.805243
C 99.423380 8.327057 -1.068173
C 100.326018 7.174580 -3.120676
C 100.746720 6.025436 -3.805426
C 101.284882 6.118141 -5.200369
C 100.717295 4.789745 -3.146415
C 99.115121 2.653439 -0.962836
C 97.827243 3.099507 -1.452832
C 96.920139 2.179358 -1.143603
C 97.583486 1.100979 -0.438181
N 98.908196 1.440090 -0.366390
N 101.950473 1.487519 -0.468897
C 100.737677 -4.748963 1.680883
C 100.276110 -5.684009 0.747525
C 100.242238 -7.049233 1.059264
C 99.705158 -8.031578 0.063731
C 100.657103 -7.469699 2.331241
C 101.134704 -6.547814 3.273518
C 101.551547 -6.995505 4.641052
C 101.160264 -5.187186 2.942381
H 96.185500 -2.002237 2.100139
H 98.169830 -3.722433 2.779614
H 99.706601 -0.884229 0.079748
H 103.360570 -4.336612 1.116326
H 105.117438 -2.603556 0.413118
H 104.801350 2.886774 0.301999
H 102.817325 4.634038 -0.306801
H 99.478716 5.755166 -0.136341
H 100.287482 8.786042 -0.577589
H 98.976240 9.055103 -1.753240
H 98.670003 8.091733 -0.308608
H 100.370685 8.140674 -3.616682
H 101.070780 5.203729 -5.763564
H 102.367875 6.272894 -5.174324
H 100.822129 6.948978 -5.743452
H 101.056966 3.883466 -3.644985
H 97.631932 4.012644 -1.986383
H 95.875240 2.242267 -1.386593
H 101.286880 0.720675 -0.526547
H 99.939945 -5.325228 -0.223891
H 100.155583 -9.019442 0.206702
H 99.935045 -7.715976 -0.959492
H 98.619726 -8.119641 0.172498
H 100.608413 -8.524295 2.589538
H 102.339264 -6.348543 5.041437
H 101.951618 -8.014480 4.613853
H 100.694052 -6.971203 5.320591
H 101.506827 -4.444115 3.658808
C 112.136966 0.005522 0.015436
C 112.928351 -1.134249 0.781390
C 112.415342 -2.000427 1.725687
C 113.452075 -2.899468 2.083662
C 114.568080 -2.549618 1.352911
N 114.259826 -1.430688 0.620000
C 115.960897 -3.304670 1.347005
C 117.094891 -2.639135 1.002916
C 118.382969 -3.296728 0.923488
C 119.289957 -2.397947 0.556219
N 117.301653 -1.330857 0.662005
C 118.626382 -1.120682 0.386553
C 119.290144 0.005522 0.015436
C 118.498052 1.368531 -0.147076
C 119.008513 2.641252 0.012320
C 117.972040 3.556135 -0.303756
C 116.858669 2.814129 -0.638274
C 115.466701 3.382178 -1.136979
C 115.471964 4.692876 -1.829308
C 115.044251 5.848797 -1.163773
C 115.064951 7.093576 -1.805243
C 114.640964 8.327057 -1.068173
C 115.543602 7.174580 -3.120676
C 115.964305 6.025436 -3.805426
C 116.502466 6.118141 -5.200369
C 115.934879 4.789745 -3.146415
C 114.332705 2.653439 -0.962836
C 113.044827 3.099507 -1.452832
C 112.137723 2.179358 -1.143603
C 112.801070 1.100979 -0.438181
N 114.125780 1.440090 -0.366390
N 117.168057 1.487519 -0.468897
C 115.955261 -4.748963 1.680883
C 115.493694 -5.684009 0.747525
C 115.459822 -7.049233 1.059264
C 114.922742 -8.031578 0.063731
C 115.874687 -7.469699 2.331241
C 116.352288 -6.547814 3.273518
C 116.769131 -6.995505 4.641052
C 116.377848 -5.187186 2.942381
H 111.403084 -2.002237 2.100139
H 113.387414 -3.722433 2.779614
H 114.924185 -0.884229 0.079748
H 118.578154 -4.336612 1.116326
H 120.335022 -2.603556 0.413118
H 120.018934 2.886774 0.301999
H 118.034909 4.634038 -0.306801
H 114.696300 5.755166 -0.136341
H 115.505066 8.786042 -0.577589
H 114.193824 9.055103 -1.753240
H 113.887587 8.091733 -0.308608
H 115.588269 8.140674 -3.616682
H 116.288364 5.203729 -5.763564
H 117.585460 6.272894 -5.174324
H 116.039713 6.948978 -5.743452
H 116.274551 3.883466 -3.644985
H 112.849516 4.012644 -1.986383
H 111.092824 2.242267 -1.386593
H 116.504464 0.720675 -0.526547
H 115.157529 -5.325228 -0.223891
H 115.373167 -9.019442 0.206702
H 115.152629 -7.715976 -0.959492
H 113.837310 -8.119641 0.172498
H 115.825997 -8.524295 2.589538
H 117.556848 -6.348543 5.041437
H 117.169202 -8.014480 4.613853
H 115.911636 -6.971203 5.320591
H 116.724412 -4.444115 3.658808
C 127.354550 0.005522 0.015436
C 128.145935 -1.134249 0.781390
C 127.632926 -2.000427 1.725687
C 128.669659 -2.899468 2.083662
C 129.785664 -2.549618 1.352911
N 129.477410 -1.430688 0.620000
C 131.178481 -3.304670 1.347005
C 132.312475 -2.639135 1.002916
C 133.600553 -3.296728 0.923488
C 134.507541 -2.397947 0.556219
N 132.519238 -1.330857 0.662005
C 133.843966 -1.120682 0.386553
C 134.507728 0.005522 0.015436
C 133.715636 1.368531 -0.147076
C 134.226097 2.641252 0.012320
C 133.189624 3.556135 -0.303756
C 132.076253 2.814129 -0.638274
C 130.684285 3.382178 -1.136979
C 130.689548 4.692876 -1.829308
C 130.261835 5.848797 -1.163773
C 130.282535 7.093576 -1.805243
C 129.858548 8.327057 -1.068173
C 130.761186 7.174580 -3.120676
C 131.181889 6.025436 -3.805426
C 131.720050 6.118141 -5.200369
C 131.152464 4.789745 -3.146415
C 129.550289 2.653439 -0.962836
C 128.262412 3.099507 -1.452832
C 127.355307 2.179358 -1.143603
C 128.018654 1.100979 -0.438181
N 129.343364 1.440090 -0.366390
N 132.385641 1.487519 -0.468897
C 131.172845 -4.748963 1.680883
C 130.711278 -5.684009 0.747525
C 130.677406 -7.049233 1.059264
C 130.140326 -8.031578 0.063731
C 131.092271 -7.469699 2.331241
C 131.569872 -6.547814 3.273518
C 131.986715 -6.995505 4.641052
C 131.595432 -5.187186 2.942381
H 126.620668 -2.002237 2.100139
H 128.604998 -3.722433 2.779614
H 130.141769 -0.884229 0.079748
H 133.795738 -4.336612 1.116326
H 135.552606 -2.603556 0.413118
H 135.236518 2.886774 0.301999
H 133.252493 4.634038 -0.306801
H 129.913884 5.755166 -0.136341
H 130.722650 8.786042 -0.577589
H 129.411408 9.055103 -1.753240
H 129.105171 8.091733 -0.308608
H 130.805853 8.140674 -3.616682
H 131.505948 5.203729 -5.763564
H 132.803044 6.272894 -5.174324
H 131.257297 6.948978 -5.743452
H 131.492135 3.883466 -3.644985
H 128.067100 4.012644 -1.986383
H 126.310408 2.242267 -1.386593
H 131.722048 0.720675 -0.526547
H 130.375113 -5.325228 -0.223891
H 130.590751 -9.019442 0.206702
H 130.370213 -7.715976 -0.959492
H 129.054894 -8.119641 0.172498
H 131.043581 -8.524295 2.589538
H 132.774432 -6.348543 5.041437
H 132.386786 -8.014480 4.613853
H 131.129220 -6.971203 5.320591
H 131.941996 -4.444115 3.658808
C 142.572134 0.005522 0.015436
C 143.363520 -1.134249 0.781390
C 142.850510 -2.000427 1.725687
C 143.887243 -2.899468 2.083662
C 145.003248 -2.549618 1.352911
N 144.694994 -1.430688 0.620000
C 146.396065 -3.304670 1.347005
C 147.530059 -2.639135 1.002916
C 148.818137 -3.296728 0.923488
C 149.725125 -2.397947 0.556219
N 147.736822 -1.330857 0.662005
C 149.061550 -1.120682 0.386553
C 149.725312 0.005522 0.015436
C 148.933221 1.368531 -0.147076
C 149.443681 2.641252 0.012320
C 148.407209 3.556135 -0.303756
C 147.293837 2.814129 -0.638274
C 145.901869 3.382178 -1.136979
C 145.907132 4.692876 -1.829308
C 145.479419 5.848797 -1.163773
C 145.500119 7.093576 -1.805243
C 145.076132 8.327057 -1.068173
C 145.978770 7.174580 -3.120676
C 146.399473 6.025436 -3.805426
C 146.937634 6.118141 -5.200369
C 146.370048 4.789745 -3.146415
C 144.767873 2.653439 -0.962836
C 143.479996 3.099507 -1.452832
C 142.572891 2.179358 -1.143603
C 143.236238 1.100979 -0.438181
N 144.560948 1.440090 -0.366390
N 147.603225 1.487519 -0.468897
C 146.390429 -4.748963 1.680883
C 145.928862 -5.684009 0.747525
C 145.894990 -7.049233 1.059264
C 145.357910 -8.031578 0.063731
C 146.309855 -7.469699 2.331241
C 146.787456 -6.547814 3.273518
C 147.204299 -6.995505 4.641052
C 146.813016 -5.187186 2.942381
H 141.838252 -2.002237 2.100139
H 143.822582 -3.722433 2.779614
H 145.359353 -0.884229 0.079748
H 149.013322 -4.336612 1.116326
H 150.770190 -2.603556 0.413118
H 150.454102 2.886774 0.301999
H 148.470077 4.634038 -0.306801
H 145.131468 5.755166 -0.136341
H 145.940234 8.786042 -0.577589
H 144.628992 9.055103 -1.753240
H 144.322755 8.091733 -0.308608
H 146.023437 8.140674 -3.616682
H 146.723532 5.203729 -5.763564
H 148.020628 6.272894 -5.174324
H 146.474881 6.948978 -5.743452
H 146.709719 3.883466 -3.644985
H 143.284684 4.012644 -1.986383
H 141.527993 2.242267 -1.386593
H 146.939632 0.720675 -0.526547
H 145.592698 -5.325228 -0.223891
H 145.808335 -9.019442 0.206702
H 145.587797 -7.715976 -0.959492
H 144.272478 -8.119641 0.172498
H 146.261165 -8.524295 2.589538
H 147.992016 -6.348543 5.041437
H 147.604370 -8.014480 4.613853
H 146.346804 -6.971203 5.320591
H 147.159580 -4.444115 3.658808
C 157.789719 0.005522 0.015436
C 158.581104 -1.134249 0.781390
C 158.068094 -2.000427 1.725687
C 159.104827 -2.899468 2.083662
C 160.220832 -2.549618 1.352911
N 159.912578 -1.430688 0.620000
C 161.613649 -3.304670 1.347005
C 162.747643 -2.639135 1.002916
C 164.035722 -3.296728 0.923488
C 164.942709 -2.397947 0.556219
N 162.954406 -1.330857 0.662005
C 164.279134 -1.120682 0.386553
C 164.942896 0.005522 0.015436
C 164.150805 1.368531 -0.147076
C 164.661265 2.641252 0.012320
C 163.624793 3.556135 -0.303756
C 162.511421 2.814129 -0.638274
C 161.119453 3.382178 -1.136979
C 161.124716 4.692876 -1.829308
C 160.697003 5.848797 -1.163773
C 160.717703 7.093576 -1.805243
C 160.293716 8.327057 -1.068173
C 161.196354 7.174580 -3.120676
C 161.617057 6.025436 -3.805426
C 162.155218 6.118141 -5.200369
C 161.587632 4.789745 -3.146415
C 159.985457 2.653439 -0.962836
C 158.697580 3.099507 -1.452832
C 157.790476 2.179358 -1.143603
C 158.453822 1.100979 -0.438181
N 159.778532 1.440090 -0.366390
N 162.820809 1.487519 -0.468897
C 161.608013 -4.748963 1.680883
C 161.146446 -5.684009 0.747525
C 161.112574 -7.049233 1.059264
C 160.575494 -8.031578 0.063731
C 161.527439 -7.469699 2.331241
C 162.005040 -6.547814 3.273518
C 162.421883 -6.995505 4.641052
C 162.030600 -5.187186 2.942381
H 157.055836 -2.002237 2.100139
H 159.040166 -3.722433 2.779614
H 160.576937 -0.884229 0.079748
H 164.230906 -4.336612 1.116326
H 165.987774 -2.603556 0.413118
H 165.671687 2.886774 0.301999
H 163.687661 4.634038 -0.306801
H 160.349052 5.755166 -0.136341
H 161.157818 8.786042 -0.577589
H 159.846577 9.055103 -1.753240
H 159.540339 8.091733 -0.308608
H 161.241022 8.140674 -3.616682
H 161.941116 5.203729 -5.763564
H 163.238212 6.272894 -5.174324
H 161.692465 6.948978 -5.743452
H 161.927303 3.883466 -3.644985
H 158.502268 4.012644 -1.986383
H 156.745577 2.242267 -1.386593
H 162.157216 0.720675 -0.526547
H 160.810282 -5.325228 -0.223891
H 161.025919 -9.019442 0.206702
H 160.805381 -7.715976 -0.959492
H 159.490062 -8.119641 0.172498
H 161.478749 -8.524295 2.589538
H 163.209600 -6.348543 5.041437
H 162.821954 -8.014480 4.613853
H 161.564389 -6.971203 5.320591
H 162.377164 -4.444115 3.658808
