332

C 42.868796 -0.001687 0.000024
C 43.603230 -1.378845 -0.071862
C 43.016084 -2.622510 -0.136779
C 44.068002 -3.578407 -0.186680
C 45.256454 -2.881222 -0.150291
N 44.964762 -1.545543 -0.080564
C 46.687810 -3.499544 -0.182577
C 47.810371 -2.754737 -0.143694
C 49.095357 -3.407203 -0.177763
C 50.032641 -2.465975 -0.128626
N 48.032202 -1.412520 -0.073617
C 49.381580 -1.168107 -0.060865
C 50.078342 -0.000355 0.000095
C 49.303677 1.391932 0.072783
C 49.867256 2.652471 0.138596
C 48.809232 3.596629 0.187885
C 47.631320 2.886700 0.150813
N 47.936669 1.549564 0.081004
C 46.198523 3.511262 0.183410
C 45.081002 2.761654 0.144276
C 43.777233 3.386375 0.176881
C 42.860750 2.422321 0.126556
C 43.554805 1.156685 0.060493
N 44.890887 1.417911 0.074132
H 41.786080 0.006530 0.000450
H 41.955408 -2.820176 -0.147095
H 43.968737 -4.651470 -0.242696
H 45.644787 -0.789504 -0.041101
H 46.765852 -4.578977 -0.238935
H 49.260318 -4.468118 -0.233155
H 51.090680 -2.653374 -0.138414
H 50.922630 2.877247 0.150336
H 48.897658 4.670725 0.243962
H 47.257966 0.791722 0.041438
H 46.117291 4.590141 0.239728
H 43.591259 4.443531 0.232063
H 41.793869 2.551722 0.133306
C 163.370560 0.000956 -0.000146
C 162.636127 1.357492 -0.248221
C 163.223272 2.582534 -0.472248
C 162.171354 3.524118 -0.644444
C 160.982902 2.837371 -0.518859
N 161.274594 1.521694 -0.278250
C 159.551546 3.446433 -0.630251
C 158.428985 2.712780 -0.496080
C 157.143999 3.355475 -0.613624
C 156.206715 2.428341 -0.444069
N 158.207154 1.390664 -0.254285
C 156.857776 1.149910 -0.210263
C 156.161014 -0.000355 0.000095
C 156.935679 -1.371793 0.250907
C 156.372101 -2.613455 0.477990
C 157.430125 -3.543474 0.648070
C 158.608036 -2.844177 0.520172
N 158.302687 -1.527065 0.279295
C 160.040833 -3.459388 0.632674
C 161.158354 -2.721005 0.497638
C 162.462123 -3.336372 0.610168
C 163.378606 -2.386755 0.436505
C 162.684551 -1.140070 0.208520
N 161.348469 -1.397384 0.255580
H 164.453277 -0.007139 0.001331
H 164.283949 2.777241 -0.507854
H 162.270619 4.581112 -0.837743
H 160.594569 0.776976 -0.142062
H 159.473504 4.509701 -0.824708
H 156.979038 4.400501 -0.804745
H 155.148676 2.612933 -0.477831
H 155.316726 -2.834864 0.518486
H 157.341698 -4.601485 0.841564
H 158.981390 -0.780573 0.142774
H 160.122065 -4.522112 0.827020
H 162.648097 -4.377698 0.800599
H 164.445487 -2.514218 0.459811
C 56.749899 -0.000349 0.008887
C 55.540960 -0.013804 0.000440
C 54.119431 -0.004985 -0.011543
C 52.907761 0.002454 -0.000680
C 58.166503 -0.007024 0.009420
C 59.387199 0.002454 -0.000680
C 72.407640 -0.000349 0.008887
C 71.198701 -0.013804 0.000440
C 69.777172 -0.004985 -0.011543
C 68.565502 0.002454 -0.000680
C 73.824244 -0.007024 0.009420
C 75.044940 0.002454 -0.000680
C 88.065381 -0.000349 0.008887
C 86.856442 -0.013804 0.000440
C 85.434913 -0.004985 -0.011543
C 84.223243 0.002454 -0.000680
C 89.481985 -0.007024 0.009420
C 90.702681 0.002454 -0.000680
C 103.723122 -0.000349 0.008887
C 102.514183 -0.013804 0.000440
C 101.092654 -0.004985 -0.011543
C 99.880984 0.002454 -0.000680
C 105.139726 -0.007024 0.009420
C 106.360422 0.002454 -0.000680
C 119.380863 -0.000349 0.008887
C 118.171924 -0.013804 0.000440
C 116.750395 -0.004985 -0.011543
C 115.538725 0.002454 -0.000680
C 120.797468 -0.007024 0.009420
C 122.018163 0.002454 -0.000680
C 135.038604 -0.000349 0.008887
C 133.829665 -0.013804 0.000440
C 132.408136 -0.004985 -0.011543
C 131.196466 0.002454 -0.000680
C 136.455209 -0.007024 0.009420
C 137.675904 0.002454 -0.000680
C 150.696345 -0.000349 0.008887
C 149.487406 -0.013804 0.000440
C 148.065877 -0.004985 -0.011543
C 146.854208 0.002454 -0.000680
C 152.112950 -0.007024 0.009420
C 153.333645 0.002454 -0.000680
C 60.320629 -0.000355 0.000100
C 61.100669 1.387180 -0.017226
C 60.548565 2.653281 -0.033049
C 61.617181 3.585905 -0.044681
C 62.788089 2.862277 -0.035622
N 62.469396 1.529249 -0.018980
C 64.220461 3.476944 -0.043269
C 65.346086 2.738892 -0.034061
C 66.626384 3.402289 -0.042314
C 67.570834 2.467317 -0.030653
N 65.576076 1.398400 -0.017354
C 66.927808 1.164847 -0.014429
C 67.630021 -0.000355 0.000100
C 66.849982 -1.387891 0.017381
C 67.402087 -2.653994 0.033117
C 66.333469 -3.586617 0.044754
C 65.162562 -2.862988 0.035781
N 65.481255 -1.529960 0.019178
C 63.730190 -3.477655 0.043473
C 62.604565 -2.739602 0.034272
C 61.324267 -3.402999 0.042569
C 60.379817 -2.468027 0.030906
C 61.022843 -1.165557 0.014638
N 62.374575 -1.399111 0.017538
H 59.495362 2.888503 -0.036004
H 61.540552 4.662405 -0.058128
H 63.134209 0.758641 -0.009353
H 64.297350 4.558283 -0.056742
H 66.783530 4.465834 -0.055567
H 68.627728 2.661520 -0.033062
H 68.455289 -2.889217 0.036011
H 66.410099 -4.663118 0.058146
H 64.816441 -0.759350 0.009594
H 63.653301 -4.558993 0.056976
H 61.167121 -4.466543 0.055850
H 59.322923 -2.662230 0.033343
C 75.978370 -0.000355 0.000100
C 76.758410 1.387180 -0.017226
C 76.206306 2.653281 -0.033049
C 77.274922 3.585905 -0.044681
C 78.445830 2.862277 -0.035622
N 78.127137 1.529249 -0.018980
C 79.878202 3.476944 -0.043269
C 81.003827 2.738892 -0.034061
C 82.284125 3.402289 -0.042314
C 83.228575 2.467317 -0.030653
N 81.233817 1.398400 -0.017354
C 82.585549 1.164847 -0.014429
C 83.287762 -0.000355 0.000100
C 82.507723 -1.387891 0.017381
C 83.059828 -2.653994 0.033117
C 81.991210 -3.586617 0.044754
C 80.820303 -2.862988 0.035781
N 81.138996 -1.529960 0.019178
C 79.387931 -3.477655 0.043473
C 78.262306 -2.739602 0.034272
C 76.982008 -3.402999 0.042569
C 76.037558 -2.468027 0.030906
C 76.680584 -1.165557 0.014638
N 78.032316 -1.399111 0.017538
H 75.153103 2.888503 -0.036004
H 77.198293 4.662405 -0.058128
H 78.791950 0.758641 -0.009353
H 79.955091 4.558283 -0.056742
H 82.441271 4.465834 -0.055567
H 84.285469 2.661520 -0.033062
H 84.113030 -2.889217 0.036011
H 82.067840 -4.663118 0.058146
H 80.474182 -0.759350 0.009594
H 79.311042 -4.558993 0.056976
H 76.824862 -4.466543 0.055850
H 74.980664 -2.662230 0.033343
C 91.636112 -0.000355 0.000100
C 92.416151 1.387180 -0.017226
C 91.864047 2.653281 -0.033049
C 92.932663 3.585905 -0.044681
C 94.103571 2.862277 -0.035622
N 93.784878 1.529249 -0.018980
C 95.535943 3.476944 -0.043269
C 96.661568 2.738892 -0.034061
C 97.941866 3.402289 -0.042314
C 98.886316 2.467317 -0.030653
N 96.891558 1.398400 -0.017354
C 98.243290 1.164847 -0.014429
C 98.945503 -0.000355 0.000100
C 98.165464 -1.387891 0.017381
C 98.717569 -2.653994 0.033117
C 97.648951 -3.586617 0.044754
C 96.478044 -2.862988 0.035781
N 96.796737 -1.529960 0.019178
C 95.045672 -3.477655 0.043473
C 93.920047 -2.739602 0.034272
C 92.639749 -3.402999 0.042569
C 91.695299 -2.468027 0.030906
C 92.338325 -1.165557 0.014638
N 93.690057 -1.399111 0.017538
H 90.810844 2.888503 -0.036004
H 92.856034 4.662405 -0.058128
H 94.449691 0.758641 -0.009353
H 95.612832 4.558283 -0.056742
H 98.099012 4.465834 -0.055567
H 99.943210 2.661520 -0.033062
H 99.770771 -2.889217 0.036011
H 97.725581 -4.663118 0.058146
H 96.131923 -0.759350 0.009594
H 94.968783 -4.558993 0.056976
H 92.482603 -4.466543 0.055850
H 90.638405 -2.662230 0.033343
C 107.293853 -0.000355 0.000100
C 108.073893 1.387180 -0.017226
C 107.521788 2.653281 -0.033049
C 108.590405 3.585905 -0.044681
C 109.761312 2.862277 -0.035622
N 109.442619 1.529249 -0.018980
C 111.193684 3.476944 -0.043269
C 112.319309 2.738892 -0.034061
C 113.599607 3.402289 -0.042314
C 114.544057 2.467317 -0.030653
N 112.549299 1.398400 -0.017354
C 113.901031 1.164847 -0.014429
C 114.603245 -0.000355 0.000100
C 113.823205 -1.387891 0.017381
C 114.375310 -2.653994 0.033117
C 113.306693 -3.586617 0.044754
C 112.135785 -2.862988 0.035781
N 112.454478 -1.529960 0.019178
C 110.703413 -3.477655 0.043473
C 109.577788 -2.739602 0.034272
C 108.297490 -3.402999 0.042569
C 107.353040 -2.468027 0.030906
C 107.996066 -1.165557 0.014638
N 109.347798 -1.399111 0.017538
H 106.468585 2.888503 -0.036004
H 108.513775 4.662405 -0.058128
H 110.107433 0.758641 -0.009353
H 111.270573 4.558283 -0.056742
H 113.756753 4.465834 -0.055567
H 115.600951 2.661520 -0.033062
H 115.428512 -2.889217 0.036011
H 113.383322 -4.663118 0.058146
H 111.789664 -0.759350 0.009594
H 110.626525 -4.558993 0.056976
H 108.140345 -4.466543 0.055850
H 106.296146 -2.662230 0.033343
C 122.951594 -0.000355 0.000100
C 123.731634 1.387180 -0.017226
C 123.179529 2.653281 -0.033049
C 124.248146 3.585905 -0.044681
C 125.419053 2.862277 -0.035622
N 125.100360 1.529249 -0.018980
C 126.851425 3.476944 -0.043269
C 127.977050 2.738892 -0.034061
C 129.257348 3.402289 -0.042314
C 130.201799 2.467317 -0.030653
N 128.207040 1.398400 -0.017354
C 129.558772 1.164847 -0.014429
C 130.260986 -0.000355 0.000100
C 129.480946 -1.387891 0.017381
C 130.033051 -2.653994 0.033117
C 128.964434 -3.586617 0.044754
C 127.793526 -2.862988 0.035781
N 128.112219 -1.529960 0.019178
C 126.361154 -3.477655 0.043473
C 125.235529 -2.739602 0.034272
C 123.955232 -3.402999 0.042569
C 123.010781 -2.468027 0.030906
C 123.653807 -1.165557 0.014638
N 125.005539 -1.399111 0.017538
H 122.126326 2.888503 -0.036004
H 124.171516 4.662405 -0.058128
H 125.765174 0.758641 -0.009353
H 126.928314 4.558283 -0.056742
H 129.414494 4.465834 -0.055567
H 131.258692 2.661520 -0.033062
H 131.086253 -2.889217 0.036011
H 129.041063 -4.663118 0.058146
H 127.447405 -0.759350 0.009594
H 126.284266 -4.558993 0.056976
H 123.798086 -4.466543 0.055850
H 121.953887 -2.662230 0.033343
C 138.609335 -0.000355 0.000100
C 139.389375 1.387180 -0.017226
C 138.837270 2.653281 -0.033049
C 139.905887 3.585905 -0.044681
C 141.076794 2.862277 -0.035622
N 140.758101 1.529249 -0.018980
C 142.509167 3.476944 -0.043269
C 143.634791 2.738892 -0.034061
C 144.915089 3.402289 -0.042314
C 145.859540 2.467317 -0.030653
N 143.864781 1.398400 -0.017354
C 145.216513 1.164847 -0.014429
C 145.918727 -0.000355 0.000100
C 145.138687 -1.387891 0.017381
C 145.690792 -2.653994 0.033117
C 144.622175 -3.586617 0.044754
C 143.451267 -2.862988 0.035781
N 143.769960 -1.529960 0.019178
C 142.018895 -3.477655 0.043473
C 140.893270 -2.739602 0.034272
C 139.612973 -3.402999 0.042569
C 138.668522 -2.468027 0.030906
C 139.311548 -1.165557 0.014638
N 140.663281 -1.399111 0.017538
H 137.784067 2.888503 -0.036004
H 139.829257 4.662405 -0.058128
H 141.422915 0.758641 -0.009353
H 142.586055 4.558283 -0.056742
H 145.072235 4.465834 -0.055567
H 146.916433 2.661520 -0.033062
H 146.743994 -2.889217 0.036011
H 144.698804 -4.663118 0.058146
H 143.105146 -0.759350 0.009594
H 141.942007 -4.558993 0.056976
H 139.455827 -4.466543 0.055850
H 137.611628 -2.662230 0.033343
