 xtb: 6.5.1 (b24c23e)
          07262216153D

332371  0     0  0            999 V2000
   43.1919   -0.0609    0.0087 C   0  0  0  0  0  0  0  0  0  0  0  0
   43.8147   -1.3013   -0.0486 C   0  0  0  0  0  0  0  0  0  0  0  0
   43.1986   -2.5847   -0.1026 C   0  0  0  0  0  0  0  0  0  0  0  0
   44.1891   -3.5250   -0.1486 C   0  0  0  0  0  0  0  0  0  0  0  0
   45.4413   -2.8461   -0.1239 C   0  0  0  0  0  0  0  0  0  0  0  0
   45.1643   -1.5110   -0.0636 N   0  0  0  0  0  0  0  0  0  0  0  0
   46.7092   -3.4151   -0.1543 C   0  0  0  0  0  0  0  0  0  0  0  0
   47.9292   -2.7552   -0.1290 C   0  0  0  0  0  0  0  0  0  0  0  0
   49.2076   -3.4432   -0.1636 C   0  0  0  0  0  0  0  0  0  0  0  0
   50.1571   -2.4857   -0.1229 C   0  0  0  0  0  0  0  0  0  0  0  0
   48.1223   -1.4092   -0.0691 N   0  0  0  0  0  0  0  0  0  0  0  0
   49.4547   -1.2162   -0.0640 C   0  0  0  0  0  0  0  0  0  0  0  0
   50.1101    0.0319   -0.0106 C   0  0  0  0  0  0  0  0  0  0  0  0
   49.4620    1.2804    0.0445 C   0  0  0  0  0  0  0  0  0  0  0  0
   50.0731    2.5623    0.0975 C   0  0  0  0  0  0  0  0  0  0  0  0
   49.0789    3.5006    0.1402 C   0  0  0  0  0  0  0  0  0  0  0  0
   47.8308    2.8176    0.1148 C   0  0  0  0  0  0  0  0  0  0  0  0
   48.1149    1.4798    0.0568 N   0  0  0  0  0  0  0  0  0  0  0  0
   46.5641    3.3871    0.1437 C   0  0  0  0  0  0  0  0  0  0  0  0
   45.3432    2.7243    0.1202 C   0  0  0  0  0  0  0  0  0  0  0  0
   44.0587    3.4064    0.1553 C   0  0  0  0  0  0  0  0  0  0  0  0
   43.1150    2.4442    0.1180 C   0  0  0  0  0  0  0  0  0  0  0  0
   43.8240    1.1758    0.0599 C   0  0  0  0  0  0  0  0  0  0  0  0
   45.1623    1.3840    0.0631 N   0  0  0  0  0  0  0  0  0  0  0  0
   42.1071   -0.0675    0.0131 H   0  0  0  0  0  0  0  0  0  0  0  0
   42.1331   -2.7512   -0.1053 H   0  0  0  0  0  0  0  0  0  0  0  0
   44.0767   -4.5966   -0.1954 H   0  0  0  0  0  0  0  0  0  0  0  0
   45.8602   -0.7733   -0.0340 H   0  0  0  0  0  0  0  0  0  0  0  0
   46.7390   -4.4990   -0.2029 H   0  0  0  0  0  0  0  0  0  0  0  0
   49.3283   -4.5141   -0.2124 H   0  0  0  0  0  0  0  0  0  0  0  0
   51.2298   -2.5966   -0.1308 H   0  0  0  0  0  0  0  0  0  0  0  0
   51.1379    2.7320    0.1017 H   0  0  0  0  0  0  0  0  0  0  0  0
   49.1886    4.5724    0.1854 H   0  0  0  0  0  0  0  0  0  0  0  0
   47.4216    0.7395    0.0274 H   0  0  0  0  0  0  0  0  0  0  0  0
   46.5354    4.4710    0.1903 H   0  0  0  0  0  0  0  0  0  0  0  0
   43.9328    4.4769    0.2022 H   0  0  0  0  0  0  0  0  0  0  0  0
   42.0412    2.5480    0.1273 H   0  0  0  0  0  0  0  0  0  0  0  0
  163.0508    0.0513   -0.0068 C   0  0  0  0  0  0  0  0  0  0  0  0
  162.4270    1.2744   -0.2181 C   0  0  0  0  0  0  0  0  0  0  0  0
  163.0419    2.5407   -0.4369 C   0  0  0  0  0  0  0  0  0  0  0  0
  162.0504    3.4674   -0.5970 C   0  0  0  0  0  0  0  0  0  0  0  0
  160.7989    2.7969   -0.4809 C   0  0  0  0  0  0  0  0  0  0  0  0
  161.0771    1.4801   -0.2537 N   0  0  0  0  0  0  0  0  0  0  0  0
  159.5305    3.3575   -0.5761 C   0  0  0  0  0  0  0  0  0  0  0  0
  158.3110    2.7061   -0.4618 C   0  0  0  0  0  0  0  0  0  0  0  0
  157.0322    3.3848   -0.5755 C   0  0  0  0  0  0  0  0  0  0  0  0
  156.0833    2.4400   -0.4114 C   0  0  0  0  0  0  0  0  0  0  0  0
  158.1187    1.3781   -0.2338 N   0  0  0  0  0  0  0  0  0  0  0  0
  156.7864    1.1875   -0.1986 C   0  0  0  0  0  0  0  0  0  0  0  0
  156.1317   -0.0445    0.0107 C   0  0  0  0  0  0  0  0  0  0  0  0
  156.7808   -1.2763    0.2183 C   0  0  0  0  0  0  0  0  0  0  0  0
  156.1710   -2.5418    0.4333 C   0  0  0  0  0  0  0  0  0  0  0  0
  157.1662   -3.4668    0.5906 C   0  0  0  0  0  0  0  0  0  0  0  0
  158.4137   -2.7918    0.4761 C   0  0  0  0  0  0  0  0  0  0  0  0
  158.1282   -1.4720    0.2516 N   0  0  0  0  0  0  0  0  0  0  0  0
  159.6809   -3.3526    0.5728 C   0  0  0  0  0  0  0  0  0  0  0  0
  160.9014   -2.6978    0.4626 C   0  0  0  0  0  0  0  0  0  0  0  0
  162.1864   -3.3697    0.5797 C   0  0  0  0  0  0  0  0  0  0  0  0
  163.1294   -2.4199    0.4183 C   0  0  0  0  0  0  0  0  0  0  0  0
  162.4196   -1.1690    0.2027 C   0  0  0  0  0  0  0  0  0  0  0  0
  161.0815   -1.3754    0.2364 N   0  0  0  0  0  0  0  0  0  0  0  0
  164.1357    0.0586   -0.0072 H   0  0  0  0  0  0  0  0  0  0  0  0
  164.1072    2.7058   -0.4655 H   0  0  0  0  0  0  0  0  0  0  0  0
  162.1617    4.5245   -0.7797 H   0  0  0  0  0  0  0  0  0  0  0  0
  160.3821    0.7519   -0.1278 H   0  0  0  0  0  0  0  0  0  0  0  0
  159.4997    4.4266   -0.7603 H   0  0  0  0  0  0  0  0  0  0  0  0
  156.9108    4.4413   -0.7563 H   0  0  0  0  0  0  0  0  0  0  0  0
  155.0106    2.5495   -0.4278 H   0  0  0  0  0  0  0  0  0  0  0  0
  155.1064   -2.7101    0.4619 H   0  0  0  0  0  0  0  0  0  0  0  0
  157.0576   -4.5245    0.7704 H   0  0  0  0  0  0  0  0  0  0  0  0
  158.8208   -0.7409    0.1275 H   0  0  0  0  0  0  0  0  0  0  0  0
  159.7105   -4.4220    0.7553 H   0  0  0  0  0  0  0  0  0  0  0  0
  162.3131   -4.4258    0.7609 H   0  0  0  0  0  0  0  0  0  0  0  0
  164.2033   -2.5215    0.4375 H   0  0  0  0  0  0  0  0  0  0  0  0
   55.3100    0.0715   -0.0119 C   0  0  0  0  0  0  0  0  0  0  0  0
   54.0814    0.0649   -0.0126 C   0  0  0  0  0  0  0  0  0  0  0  0
   52.7378    0.0566   -0.0128 C   0  0  0  0  0  0  0  0  0  0  0  0
   51.5137    0.0442   -0.0122 C   0  0  0  0  0  0  0  0  0  0  0  0
   56.6534    0.0746   -0.0102 C   0  0  0  0  0  0  0  0  0  0  0  0
   57.8777    0.0729   -0.0079 C   0  0  0  0  0  0  0  0  0  0  0  0
   71.4547   -0.0048   -0.0171 C   0  0  0  0  0  0  0  0  0  0  0  0
   70.2259   -0.0052   -0.0121 C   0  0  0  0  0  0  0  0  0  0  0  0
   68.8831   -0.0040   -0.0053 C   0  0  0  0  0  0  0  0  0  0  0  0
   67.6586    0.0006    0.0023 C   0  0  0  0  0  0  0  0  0  0  0  0
   72.7976   -0.0032   -0.0186 C   0  0  0  0  0  0  0  0  0  0  0  0
   74.0220   -0.0033   -0.0180 C   0  0  0  0  0  0  0  0  0  0  0  0
   87.5952    0.0082   -0.0150 C   0  0  0  0  0  0  0  0  0  0  0  0
   86.3664    0.0014   -0.0118 C   0  0  0  0  0  0  0  0  0  0  0  0
   85.0237   -0.0055   -0.0068 C   0  0  0  0  0  0  0  0  0  0  0  0
   83.7993   -0.0100   -0.0007 C   0  0  0  0  0  0  0  0  0  0  0  0
   88.9379    0.0125   -0.0169 C   0  0  0  0  0  0  0  0  0  0  0  0
   90.1623    0.0146   -0.0166 C   0  0  0  0  0  0  0  0  0  0  0  0
  103.7321    0.0130    0.0002 C   0  0  0  0  0  0  0  0  0  0  0  0
  102.5033    0.0013    0.0034 C   0  0  0  0  0  0  0  0  0  0  0  0
  101.1607   -0.0079    0.0056 C   0  0  0  0  0  0  0  0  0  0  0  0
   99.9364   -0.0151    0.0067 C   0  0  0  0  0  0  0  0  0  0  0  0
  105.0748    0.0217   -0.0015 C   0  0  0  0  0  0  0  0  0  0  0  0
  106.2992    0.0267   -0.0019 C   0  0  0  0  0  0  0  0  0  0  0  0
  119.8701   -0.0041    0.0036 C   0  0  0  0  0  0  0  0  0  0  0  0
  118.6413   -0.0160    0.0017 C   0  0  0  0  0  0  0  0  0  0  0  0
  117.2986   -0.0255   -0.0041 C   0  0  0  0  0  0  0  0  0  0  0  0
  116.0743   -0.0308   -0.0098 C   0  0  0  0  0  0  0  0  0  0  0  0
  121.2128    0.0081    0.0101 C   0  0  0  0  0  0  0  0  0  0  0  0
  122.4373    0.0174    0.0158 C   0  0  0  0  0  0  0  0  0  0  0  0
  136.0133   -0.0113    0.0014 C   0  0  0  0  0  0  0  0  0  0  0  0
  134.7844   -0.0083    0.0011 C   0  0  0  0  0  0  0  0  0  0  0  0
  133.4415   -0.0078    0.0013 C   0  0  0  0  0  0  0  0  0  0  0  0
  132.2170   -0.0029   -0.0000 C   0  0  0  0  0  0  0  0  0  0  0  0
  137.3562   -0.0138   -0.0011 C   0  0  0  0  0  0  0  0  0  0  0  0
  138.5806   -0.0177   -0.0023 C   0  0  0  0  0  0  0  0  0  0  0  0
  152.1602   -0.0571    0.0126 C   0  0  0  0  0  0  0  0  0  0  0  0
  150.9315   -0.0519    0.0092 C   0  0  0  0  0  0  0  0  0  0  0  0
  149.5881   -0.0494    0.0072 C   0  0  0  0  0  0  0  0  0  0  0  0
  148.3638   -0.0444    0.0022 C   0  0  0  0  0  0  0  0  0  0  0  0
  153.5038   -0.0567    0.0135 C   0  0  0  0  0  0  0  0  0  0  0  0
  154.7280   -0.0558    0.0129 C   0  0  0  0  0  0  0  0  0  0  0  0
   59.2805    0.0677   -0.0035 C   0  0  0  0  0  0  0  0  0  0  0  0
   59.9267    1.3191   -0.0069 C   0  0  0  0  0  0  0  0  0  0  0  0
   59.3174    2.6017   -0.0136 C   0  0  0  0  0  0  0  0  0  0  0  0
   60.3141    3.5396   -0.0147 C   0  0  0  0  0  0  0  0  0  0  0  0
   61.5597    2.8541   -0.0092 C   0  0  0  0  0  0  0  0  0  0  0  0
   61.2742    1.5162   -0.0043 N   0  0  0  0  0  0  0  0  0  0  0  0
   62.8279    3.4253   -0.0108 C   0  0  0  0  0  0  0  0  0  0  0  0
   64.0527    2.7763   -0.0082 C   0  0  0  0  0  0  0  0  0  0  0  0
   65.3246    3.4770   -0.0146 C   0  0  0  0  0  0  0  0  0  0  0  0
   66.2830    2.5274   -0.0110 C   0  0  0  0  0  0  0  0  0  0  0  0
   64.2582    1.4307   -0.0003 N   0  0  0  0  0  0  0  0  0  0  0  0
   65.5922    1.2508   -0.0015 C   0  0  0  0  0  0  0  0  0  0  0  0
   66.2564    0.0062    0.0069 C   0  0  0  0  0  0  0  0  0  0  0  0
   65.6105   -1.2453    0.0199 C   0  0  0  0  0  0  0  0  0  0  0  0
   66.2200   -2.5278    0.0332 C   0  0  0  0  0  0  0  0  0  0  0  0
   65.2234   -3.4657    0.0423 C   0  0  0  0  0  0  0  0  0  0  0  0
   63.9777   -2.7803    0.0342 C   0  0  0  0  0  0  0  0  0  0  0  0
   64.2632   -1.4423    0.0215 N   0  0  0  0  0  0  0  0  0  0  0  0
   62.7097   -3.3510    0.0360 C   0  0  0  0  0  0  0  0  0  0  0  0
   61.4847   -2.7018    0.0251 C   0  0  0  0  0  0  0  0  0  0  0  0
   60.2131   -3.4028    0.0242 C   0  0  0  0  0  0  0  0  0  0  0  0
   59.2544   -2.4534    0.0119 C   0  0  0  0  0  0  0  0  0  0  0  0
   59.9447   -1.1767    0.0060 C   0  0  0  0  0  0  0  0  0  0  0  0
   61.2791   -1.3564    0.0135 N   0  0  0  0  0  0  0  0  0  0  0  0
   58.2530    2.7732   -0.0171 H   0  0  0  0  0  0  0  0  0  0  0  0
   60.2064    4.6125   -0.0192 H   0  0  0  0  0  0  0  0  0  0  0  0
   61.9642    0.7722    0.0006 H   0  0  0  0  0  0  0  0  0  0  0  0
   62.8508    4.5105   -0.0160 H   0  0  0  0  0  0  0  0  0  0  0  0
   65.4353    4.5500   -0.0214 H   0  0  0  0  0  0  0  0  0  0  0  0
   67.3546    2.6481   -0.0140 H   0  0  0  0  0  0  0  0  0  0  0  0
   67.2845   -2.6992    0.0357 H   0  0  0  0  0  0  0  0  0  0  0  0
   65.3313   -4.5386    0.0533 H   0  0  0  0  0  0  0  0  0  0  0  0
   63.5732   -0.6983    0.0136 H   0  0  0  0  0  0  0  0  0  0  0  0
   62.6864   -4.4363    0.0458 H   0  0  0  0  0  0  0  0  0  0  0  0
   60.1026   -4.4758    0.0319 H   0  0  0  0  0  0  0  0  0  0  0  0
   58.1829   -2.5745    0.0072 H   0  0  0  0  0  0  0  0  0  0  0  0
   75.4243   -0.0003   -0.0141 C   0  0  0  0  0  0  0  0  0  0  0  0
   76.0616    1.2558   -0.0279 C   0  0  0  0  0  0  0  0  0  0  0  0
   75.4428    2.5337   -0.0469 C   0  0  0  0  0  0  0  0  0  0  0  0
   76.4324    3.4789   -0.0518 C   0  0  0  0  0  0  0  0  0  0  0  0
   77.6829    2.8027   -0.0363 C   0  0  0  0  0  0  0  0  0  0  0  0
   77.4074    1.4627   -0.0227 N   0  0  0  0  0  0  0  0  0  0  0  0
   78.9469    3.3828   -0.0354 C   0  0  0  0  0  0  0  0  0  0  0  0
   80.1759    2.7420   -0.0243 C   0  0  0  0  0  0  0  0  0  0  0  0
   81.4432    3.4507   -0.0283 C   0  0  0  0  0  0  0  0  0  0  0  0
   82.4076    2.5071   -0.0194 C   0  0  0  0  0  0  0  0  0  0  0  0
   80.3898    1.3976   -0.0116 N   0  0  0  0  0  0  0  0  0  0  0  0
   81.7249    1.2262   -0.0088 C   0  0  0  0  0  0  0  0  0  0  0  0
   82.3971   -0.0140    0.0035 C   0  0  0  0  0  0  0  0  0  0  0  0
   81.7601   -1.2700    0.0209 C   0  0  0  0  0  0  0  0  0  0  0  0
   82.3790   -2.5479    0.0398 C   0  0  0  0  0  0  0  0  0  0  0  0
   81.3893   -3.4930    0.0550 C   0  0  0  0  0  0  0  0  0  0  0  0
   80.1387   -2.8168    0.0448 C   0  0  0  0  0  0  0  0  0  0  0  0
   80.4143   -1.4769    0.0246 N   0  0  0  0  0  0  0  0  0  0  0  0
   78.8748   -3.3966    0.0518 C   0  0  0  0  0  0  0  0  0  0  0  0
   77.6457   -2.7557    0.0375 C   0  0  0  0  0  0  0  0  0  0  0  0
   76.3784   -3.4645    0.0429 C   0  0  0  0  0  0  0  0  0  0  0  0
   75.4139   -2.5212    0.0233 C   0  0  0  0  0  0  0  0  0  0  0  0
   76.0964   -1.2403    0.0067 C   0  0  0  0  0  0  0  0  0  0  0  0
   77.4317   -1.4116    0.0155 N   0  0  0  0  0  0  0  0  0  0  0  0
   74.3771    2.6973   -0.0555 H   0  0  0  0  0  0  0  0  0  0  0  0
   76.3168    4.5509   -0.0651 H   0  0  0  0  0  0  0  0  0  0  0  0
   78.1029    0.7240   -0.0096 H   0  0  0  0  0  0  0  0  0  0  0  0
   78.9624    4.4682   -0.0460 H   0  0  0  0  0  0  0  0  0  0  0  0
   81.5472    4.5243   -0.0371 H   0  0  0  0  0  0  0  0  0  0  0  0
   83.4785    2.6347   -0.0191 H   0  0  0  0  0  0  0  0  0  0  0  0
   83.4447   -2.7115    0.0418 H   0  0  0  0  0  0  0  0  0  0  0  0
   81.5050   -4.5650    0.0715 H   0  0  0  0  0  0  0  0  0  0  0  0
   79.7188   -0.7381    0.0136 H   0  0  0  0  0  0  0  0  0  0  0  0
   78.8591   -4.4819    0.0690 H   0  0  0  0  0  0  0  0  0  0  0  0
   76.2746   -4.5381    0.0592 H   0  0  0  0  0  0  0  0  0  0  0  0
   74.3431   -2.6488    0.0199 H   0  0  0  0  0  0  0  0  0  0  0  0
   91.5645    0.0152   -0.0125 C   0  0  0  0  0  0  0  0  0  0  0  0
   92.2044    1.2698   -0.0247 C   0  0  0  0  0  0  0  0  0  0  0  0
   91.5882    2.5490   -0.0416 C   0  0  0  0  0  0  0  0  0  0  0  0
   92.5797    3.4922   -0.0468 C   0  0  0  0  0  0  0  0  0  0  0  0
   93.8288    2.8135   -0.0334 C   0  0  0  0  0  0  0  0  0  0  0  0
   93.5507    1.4740   -0.0206 N   0  0  0  0  0  0  0  0  0  0  0  0
   95.0942    3.3904   -0.0332 C   0  0  0  0  0  0  0  0  0  0  0  0
   96.3212    2.7459   -0.0222 C   0  0  0  0  0  0  0  0  0  0  0  0
   97.5907    3.4507   -0.0252 C   0  0  0  0  0  0  0  0  0  0  0  0
   98.5521    2.5042   -0.0148 C   0  0  0  0  0  0  0  0  0  0  0  0
   96.5309    1.4009   -0.0091 N   0  0  0  0  0  0  0  0  0  0  0  0
   97.8655    1.2253   -0.0047 C   0  0  0  0  0  0  0  0  0  0  0  0
   98.5342   -0.0167    0.0082 C   0  0  0  0  0  0  0  0  0  0  0  0
   97.8944   -1.2714    0.0222 C   0  0  0  0  0  0  0  0  0  0  0  0
   98.5107   -2.5506    0.0391 C   0  0  0  0  0  0  0  0  0  0  0  0
   97.5191   -3.4937    0.0500 C   0  0  0  0  0  0  0  0  0  0  0  0
   96.2700   -2.8150    0.0396 C   0  0  0  0  0  0  0  0  0  0  0  0
   96.5482   -1.4755    0.0231 N   0  0  0  0  0  0  0  0  0  0  0  0
   95.0046   -3.3918    0.0438 C   0  0  0  0  0  0  0  0  0  0  0  0
   93.7775   -2.7472    0.0313 C   0  0  0  0  0  0  0  0  0  0  0  0
   92.5080   -3.4520    0.0355 C   0  0  0  0  0  0  0  0  0  0  0  0
   91.5466   -2.5056    0.0191 C   0  0  0  0  0  0  0  0  0  0  0  0
   92.2331   -1.2268    0.0054 C   0  0  0  0  0  0  0  0  0  0  0  0
   93.5678   -1.4023    0.0130 N   0  0  0  0  0  0  0  0  0  0  0  0
   90.5228    2.7147   -0.0486 H   0  0  0  0  0  0  0  0  0  0  0  0
   92.4663    4.5645   -0.0588 H   0  0  0  0  0  0  0  0  0  0  0  0
   94.2449    0.7341   -0.0091 H   0  0  0  0  0  0  0  0  0  0  0  0
   95.1127    4.4757   -0.0437 H   0  0  0  0  0  0  0  0  0  0  0  0
   97.6980    4.5240   -0.0343 H   0  0  0  0  0  0  0  0  0  0  0  0
   99.6233    2.6284   -0.0133 H   0  0  0  0  0  0  0  0  0  0  0  0
   99.5761   -2.7163    0.0425 H   0  0  0  0  0  0  0  0  0  0  0  0
   97.6326   -4.5660    0.0639 H   0  0  0  0  0  0  0  0  0  0  0  0
   95.8539   -0.7356    0.0128 H   0  0  0  0  0  0  0  0  0  0  0  0
   94.9860   -4.4770    0.0579 H   0  0  0  0  0  0  0  0  0  0  0  0
   92.4008   -4.5253    0.0491 H   0  0  0  0  0  0  0  0  0  0  0  0
   90.4753   -2.6299    0.0163 H   0  0  0  0  0  0  0  0  0  0  0  0
  107.7013    0.0243   -0.0035 C   0  0  0  0  0  0  0  0  0  0  0  0
  108.3449    1.2770   -0.0166 C   0  0  0  0  0  0  0  0  0  0  0  0
  107.7326    2.5582   -0.0277 C   0  0  0  0  0  0  0  0  0  0  0  0
  108.7272    3.4982   -0.0388 C   0  0  0  0  0  0  0  0  0  0  0  0
  109.9742    2.8154   -0.0349 C   0  0  0  0  0  0  0  0  0  0  0  0
  109.6917    1.4768   -0.0212 N   0  0  0  0  0  0  0  0  0  0  0  0
  111.2413    3.3882   -0.0438 C   0  0  0  0  0  0  0  0  0  0  0  0
  112.4665    2.7399   -0.0400 C   0  0  0  0  0  0  0  0  0  0  0  0
  113.7380    3.4411   -0.0501 C   0  0  0  0  0  0  0  0  0  0  0  0
  114.6968    2.4919   -0.0410 C   0  0  0  0  0  0  0  0  0  0  0  0
  112.6725    1.3944   -0.0258 N   0  0  0  0  0  0  0  0  0  0  0  0
  114.0067    1.2151   -0.0257 C   0  0  0  0  0  0  0  0  0  0  0  0
  114.6720   -0.0288   -0.0120 C   0  0  0  0  0  0  0  0  0  0  0  0
  114.0284   -1.2815    0.0014 C   0  0  0  0  0  0  0  0  0  0  0  0
  114.6405   -2.5628    0.0145 C   0  0  0  0  0  0  0  0  0  0  0  0
  113.6458   -3.5027    0.0252 C   0  0  0  0  0  0  0  0  0  0  0  0
  112.3989   -2.8198    0.0191 C   0  0  0  0  0  0  0  0  0  0  0  0
  112.6814   -1.4813    0.0044 N   0  0  0  0  0  0  0  0  0  0  0  0
  111.1317   -3.3928    0.0269 C   0  0  0  0  0  0  0  0  0  0  0  0
  109.9065   -2.7446    0.0219 C   0  0  0  0  0  0  0  0  0  0  0  0
  108.6350   -3.4458    0.0312 C   0  0  0  0  0  0  0  0  0  0  0  0
  107.6762   -2.4965    0.0225 C   0  0  0  0  0  0  0  0  0  0  0  0
  108.3665   -1.2197    0.0082 C   0  0  0  0  0  0  0  0  0  0  0  0
  109.7006   -1.3990    0.0081 N   0  0  0  0  0  0  0  0  0  0  0  0
  106.6678    2.7273   -0.0271 H   0  0  0  0  0  0  0  0  0  0  0  0
  108.6171    4.5708   -0.0488 H   0  0  0  0  0  0  0  0  0  0  0  0
  110.3836    0.7346   -0.0154 H   0  0  0  0  0  0  0  0  0  0  0  0
  111.2633    4.4734   -0.0549 H   0  0  0  0  0  0  0  0  0  0  0  0
  113.8482    4.5141   -0.0623 H   0  0  0  0  0  0  0  0  0  0  0  0
  115.7683    2.6133   -0.0444 H   0  0  0  0  0  0  0  0  0  0  0  0
  115.7053   -2.7320    0.0153 H   0  0  0  0  0  0  0  0  0  0  0  0
  113.7557   -4.5753    0.0364 H   0  0  0  0  0  0  0  0  0  0  0  0
  111.9897   -0.7390   -0.0025 H   0  0  0  0  0  0  0  0  0  0  0  0
  111.1098   -4.4780    0.0386 H   0  0  0  0  0  0  0  0  0  0  0  0
  108.5246   -4.5187    0.0427 H   0  0  0  0  0  0  0  0  0  0  0  0
  106.6047   -2.6178    0.0254 H   0  0  0  0  0  0  0  0  0  0  0  0
  123.8395    0.0206    0.0163 C   0  0  0  0  0  0  0  0  0  0  0  0
  124.4784    1.2757    0.0021 C   0  0  0  0  0  0  0  0  0  0  0  0
  123.8619    2.5549   -0.0102 C   0  0  0  0  0  0  0  0  0  0  0  0
  124.8533    3.4981   -0.0223 C   0  0  0  0  0  0  0  0  0  0  0  0
  126.1027    2.8196   -0.0178 C   0  0  0  0  0  0  0  0  0  0  0  0
  125.8246    1.4801   -0.0026 N   0  0  0  0  0  0  0  0  0  0  0  0
  127.3677    3.3972   -0.0279 C   0  0  0  0  0  0  0  0  0  0  0  0
  128.5961    2.7547   -0.0247 C   0  0  0  0  0  0  0  0  0  0  0  0
  129.8641    3.4622   -0.0366 C   0  0  0  0  0  0  0  0  0  0  0  0
  130.8277    2.5178   -0.0284 C   0  0  0  0  0  0  0  0  0  0  0  0
  128.8088    1.4103   -0.0100 N   0  0  0  0  0  0  0  0  0  0  0  0
  130.1440    1.2376   -0.0118 C   0  0  0  0  0  0  0  0  0  0  0  0
  130.8147   -0.0033    0.0011 C   0  0  0  0  0  0  0  0  0  0  0  0
  130.1753   -1.2583    0.0162 C   0  0  0  0  0  0  0  0  0  0  0  0
  130.7918   -2.5374    0.0285 C   0  0  0  0  0  0  0  0  0  0  0  0
  129.8004   -3.4808    0.0414 C   0  0  0  0  0  0  0  0  0  0  0  0
  128.5511   -2.8022    0.0375 C   0  0  0  0  0  0  0  0  0  0  0  0
  128.8290   -1.4627    0.0219 N   0  0  0  0  0  0  0  0  0  0  0  0
  127.2862   -3.3801    0.0479 C   0  0  0  0  0  0  0  0  0  0  0  0
  126.0579   -2.7376    0.0444 C   0  0  0  0  0  0  0  0  0  0  0  0
  124.7899   -3.4450    0.0558 C   0  0  0  0  0  0  0  0  0  0  0  0
  123.8265   -2.5005    0.0467 C   0  0  0  0  0  0  0  0  0  0  0  0
  124.5104   -1.2203    0.0300 C   0  0  0  0  0  0  0  0  0  0  0  0
  125.8454   -1.3931    0.0293 N   0  0  0  0  0  0  0  0  0  0  0  0
  122.7965    2.7205   -0.0096 H   0  0  0  0  0  0  0  0  0  0  0  0
  124.7396    4.5704   -0.0335 H   0  0  0  0  0  0  0  0  0  0  0  0
  126.5185    0.7398    0.0037 H   0  0  0  0  0  0  0  0  0  0  0  0
  127.3849    4.4826   -0.0400 H   0  0  0  0  0  0  0  0  0  0  0  0
  129.9689    4.5357   -0.0494 H   0  0  0  0  0  0  0  0  0  0  0  0
  131.8986    2.6442   -0.0331 H   0  0  0  0  0  0  0  0  0  0  0  0
  131.8572   -2.7031    0.0273 H   0  0  0  0  0  0  0  0  0  0  0  0
  129.9141   -4.5530    0.0526 H   0  0  0  0  0  0  0  0  0  0  0  0
  128.1350   -0.7225    0.0158 H   0  0  0  0  0  0  0  0  0  0  0  0
  127.2690   -4.4654    0.0602 H   0  0  0  0  0  0  0  0  0  0  0  0
  124.6849   -4.5185    0.0688 H   0  0  0  0  0  0  0  0  0  0  0  0
  122.7555   -2.6270    0.0508 H   0  0  0  0  0  0  0  0  0  0  0  0
  139.9829   -0.0176   -0.0024 C   0  0  0  0  0  0  0  0  0  0  0  0
  140.6232    1.2366   -0.0340 C   0  0  0  0  0  0  0  0  0  0  0  0
  140.0077    2.5160   -0.0655 C   0  0  0  0  0  0  0  0  0  0  0  0
  140.9999    3.4581   -0.0920 C   0  0  0  0  0  0  0  0  0  0  0  0
  142.2488    2.7787   -0.0772 C   0  0  0  0  0  0  0  0  0  0  0  0
  141.9695    1.4398   -0.0419 N   0  0  0  0  0  0  0  0  0  0  0  0
  143.5140    3.3554   -0.0952 C   0  0  0  0  0  0  0  0  0  0  0  0
  144.7425    2.7128   -0.0794 C   0  0  0  0  0  0  0  0  0  0  0  0
  146.0105    3.4202   -0.0998 C   0  0  0  0  0  0  0  0  0  0  0  0
  146.9742    2.4763   -0.0731 C   0  0  0  0  0  0  0  0  0  0  0  0
  144.9553    1.3691   -0.0419 N   0  0  0  0  0  0  0  0  0  0  0  0
  146.2907    1.1964   -0.0369 C   0  0  0  0  0  0  0  0  0  0  0  0
  146.9610   -0.0441   -0.0000 C   0  0  0  0  0  0  0  0  0  0  0  0
  146.3204   -1.2981    0.0338 C   0  0  0  0  0  0  0  0  0  0  0  0
  146.9356   -2.5774    0.0686 C   0  0  0  0  0  0  0  0  0  0  0  0
  145.9433   -3.5197    0.0898 C   0  0  0  0  0  0  0  0  0  0  0  0
  144.6946   -2.8403    0.0688 C   0  0  0  0  0  0  0  0  0  0  0  0
  144.9738   -1.5015    0.0355 N   0  0  0  0  0  0  0  0  0  0  0  0
  143.4293   -3.4176    0.0799 C   0  0  0  0  0  0  0  0  0  0  0  0
  142.2010   -2.7754    0.0624 C   0  0  0  0  0  0  0  0  0  0  0  0
  140.9328   -3.4827    0.0782 C   0  0  0  0  0  0  0  0  0  0  0  0
  139.9694   -2.5384    0.0560 C   0  0  0  0  0  0  0  0  0  0  0  0
  140.6533   -1.2585    0.0264 C   0  0  0  0  0  0  0  0  0  0  0  0
  141.9883   -1.4312    0.0307 N   0  0  0  0  0  0  0  0  0  0  0  0
  138.9424    2.6825   -0.0674 H   0  0  0  0  0  0  0  0  0  0  0  0
  140.8869    4.5302   -0.1193 H   0  0  0  0  0  0  0  0  0  0  0  0
  142.6628    0.6991   -0.0245 H   0  0  0  0  0  0  0  0  0  0  0  0
  143.5317    4.4404   -0.1245 H   0  0  0  0  0  0  0  0  0  0  0  0
  146.1152    4.4934   -0.1301 H   0  0  0  0  0  0  0  0  0  0  0  0
  148.0451    2.6028   -0.0767 H   0  0  0  0  0  0  0  0  0  0  0  0
  148.0009   -2.7438    0.0758 H   0  0  0  0  0  0  0  0  0  0  0  0
  146.0561   -4.5917    0.1175 H   0  0  0  0  0  0  0  0  0  0  0  0
  144.2805   -0.7609    0.0143 H   0  0  0  0  0  0  0  0  0  0  0  0
  143.4120   -4.5027    0.1063 H   0  0  0  0  0  0  0  0  0  0  0  0
  140.8278   -4.5560    0.1031 H   0  0  0  0  0  0  0  0  0  0  0  0
  138.8984   -2.6647    0.0587 H   0  0  0  0  0  0  0  0  0  0  0  0
  1  2  4  0  0  0  0
  2  3  4  0  0  0  0
  3  4  2  0  0  0  0
  4  5  4  0  0  0  0
  2  6  4  0  0  0  0
  5  6  4  0  0  0  0
  5  7  4  0  0  0  0
  7  8  4  0  0  0  0
  8  9  1  0  0  0  0
  9 10  2  0  0  0  0
  8 11  4  0  0  0  0
 10 12  1  0  0  0  0
 11 12  4  0  0  0  0
 12 13  4  0  0  0  0
 13 14  4  0  0  0  0
 14 15  4  0  0  0  0
 15 16  2  0  0  0  0
 16 17  4  0  0  0  0
 14 18  4  0  0  0  0
 17 18  4  0  0  0  0
 17 19  4  0  0  0  0
 19 20  4  0  0  0  0
 20 21  1  0  0  0  0
 21 22  2  0  0  0  0
  1 23  4  0  0  0  0
 22 23  1  0  0  0  0
 20 24  4  0  0  0  0
 23 24  4  0  0  0  0
  1 25  1  0  0  0  0
  3 26  1  0  0  0  0
  4 27  1  0  0  0  0
  6 28  1  0  0  0  0
  7 29  1  0  0  0  0
  9 30  1  0  0  0  0
 10 31  1  0  0  0  0
 15 32  1  0  0  0  0
 16 33  1  0  0  0  0
 18 34  1  0  0  0  0
 19 35  1  0  0  0  0
 21 36  1  0  0  0  0
 22 37  1  0  0  0  0
 38 39  4  0  0  0  0
 39 40  4  0  0  0  0
 40 41  2  0  0  0  0
 41 42  4  0  0  0  0
 39 43  4  0  0  0  0
 42 43  4  0  0  0  0
 42 44  4  0  0  0  0
 44 45  4  0  0  0  0
 45 46  1  0  0  0  0
 46 47  2  0  0  0  0
 45 48  4  0  0  0  0
 47 49  1  0  0  0  0
 48 49  4  0  0  0  0
 49 50  4  0  0  0  0
 50 51  4  0  0  0  0
 51 52  4  0  0  0  0
 52 53  2  0  0  0  0
 53 54  4  0  0  0  0
 51 55  4  0  0  0  0
 54 55  4  0  0  0  0
 54 56  4  0  0  0  0
 56 57  4  0  0  0  0
 57 58  1  0  0  0  0
 58 59  2  0  0  0  0
 38 60  4  0  0  0  0
 59 60  1  0  0  0  0
 57 61  4  0  0  0  0
 60 61  4  0  0  0  0
 38 62  1  0  0  0  0
 40 63  1  0  0  0  0
 41 64  1  0  0  0  0
 43 65  1  0  0  0  0
 44 66  1  0  0  0  0
 46 67  1  0  0  0  0
 47 68  1  0  0  0  0
 52 69  1  0  0  0  0
 53 70  1  0  0  0  0
 55 71  1  0  0  0  0
 56 72  1  0  0  0  0
 58 73  1  0  0  0  0
 59 74  1  0  0  0  0
 75 76  3  0  0  0  0
 76 77  4  0  0  0  0
 13 78  4  0  0  0  0
 77 78  3  0  0  0  0
 75 79  4  0  0  0  0
 79 80  3  0  0  0  0
 81 82  3  0  0  0  0
 82 83  4  0  0  0  0
 83 84  3  0  0  0  0
 81 85  4  0  0  0  0
 85 86  3  0  0  0  0
 87 88  3  0  0  0  0
 88 89  4  0  0  0  0
 89 90  3  0  0  0  0
 87 91  4  0  0  0  0
 91 92  3  0  0  0  0
 93 94  3  0  0  0  0
 94 95  4  0  0  0  0
 95 96  3  0  0  0  0
 93 97  4  0  0  0  0
 97 98  3  0  0  0  0
 99100  3  0  0  0  0
100101  4  0  0  0  0
101102  3  0  0  0  0
 99103  4  0  0  0  0
103104  3  0  0  0  0
105106  3  0  0  0  0
106107  4  0  0  0  0
107108  3  0  0  0  0
105109  4  0  0  0  0
109110  3  0  0  0  0
111112  3  0  0  0  0
112113  4  0  0  0  0
113114  3  0  0  0  0
111115  4  0  0  0  0
 50116  4  0  0  0  0
115116  3  0  0  0  0
 80117  4  0  0  0  0
117118  4  0  0  0  0
118119  4  0  0  0  0
119120  2  0  0  0  0
120121  4  0  0  0  0
118122  4  0  0  0  0
121122  4  0  0  0  0
121123  4  0  0  0  0
123124  4  0  0  0  0
124125  1  0  0  0  0
125126  2  0  0  0  0
124127  4  0  0  0  0
126128  1  0  0  0  0
127128  4  0  0  0  0
 84129  4  0  0  0  0
128129  4  0  0  0  0
129130  4  0  0  0  0
130131  4  0  0  0  0
131132  2  0  0  0  0
132133  4  0  0  0  0
130134  4  0  0  0  0
133134  4  0  0  0  0
133135  4  0  0  0  0
135136  4  0  0  0  0
136137  1  0  0  0  0
137138  2  0  0  0  0
117139  4  0  0  0  0
138139  1  0  0  0  0
136140  4  0  0  0  0
139140  4  0  0  0  0
119141  1  0  0  0  0
120142  1  0  0  0  0
122143  1  0  0  0  0
123144  1  0  0  0  0
125145  1  0  0  0  0
126146  1  0  0  0  0
131147  1  0  0  0  0
132148  1  0  0  0  0
134149  1  0  0  0  0
135150  1  0  0  0  0
137151  1  0  0  0  0
138152  1  0  0  0  0
 86153  4  0  0  0  0
153154  4  0  0  0  0
154155  4  0  0  0  0
155156  2  0  0  0  0
156157  4  0  0  0  0
154158  4  0  0  0  0
157158  4  0  0  0  0
157159  4  0  0  0  0
159160  4  0  0  0  0
160161  1  0  0  0  0
161162  2  0  0  0  0
160163  4  0  0  0  0
162164  1  0  0  0  0
163164  4  0  0  0  0
 90165  4  0  0  0  0
164165  4  0  0  0  0
165166  4  0  0  0  0
166167  4  0  0  0  0
167168  2  0  0  0  0
168169  4  0  0  0  0
166170  4  0  0  0  0
169170  4  0  0  0  0
169171  4  0  0  0  0
171172  4  0  0  0  0
172173  1  0  0  0  0
173174  2  0  0  0  0
153175  4  0  0  0  0
174175  1  0  0  0  0
172176  4  0  0  0  0
175176  4  0  0  0  0
155177  1  0  0  0  0
156178  1  0  0  0  0
158179  1  0  0  0  0
159180  1  0  0  0  0
161181  1  0  0  0  0
162182  1  0  0  0  0
167183  1  0  0  0  0
168184  1  0  0  0  0
170185  1  0  0  0  0
171186  1  0  0  0  0
173187  1  0  0  0  0
174188  1  0  0  0  0
 92189  4  0  0  0  0
189190  4  0  0  0  0
190191  4  0  0  0  0
191192  2  0  0  0  0
192193  4  0  0  0  0
190194  4  0  0  0  0
193194  4  0  0  0  0
193195  4  0  0  0  0
195196  4  0  0  0  0
196197  1  0  0  0  0
197198  2  0  0  0  0
196199  4  0  0  0  0
198200  1  0  0  0  0
199200  4  0  0  0  0
 96201  4  0  0  0  0
200201  4  0  0  0  0
201202  4  0  0  0  0
202203  4  0  0  0  0
203204  2  0  0  0  0
204205  4  0  0  0  0
202206  4  0  0  0  0
205206  4  0  0  0  0
205207  4  0  0  0  0
207208  4  0  0  0  0
208209  1  0  0  0  0
209210  2  0  0  0  0
189211  4  0  0  0  0
210211  1  0  0  0  0
208212  4  0  0  0  0
211212  4  0  0  0  0
191213  1  0  0  0  0
192214  1  0  0  0  0
194215  1  0  0  0  0
195216  1  0  0  0  0
197217  1  0  0  0  0
198218  1  0  0  0  0
203219  1  0  0  0  0
204220  1  0  0  0  0
206221  1  0  0  0  0
207222  1  0  0  0  0
209223  1  0  0  0  0
210224  1  0  0  0  0
 98225  4  0  0  0  0
225226  4  0  0  0  0
226227  4  0  0  0  0
227228  2  0  0  0  0
228229  4  0  0  0  0
226230  4  0  0  0  0
229230  4  0  0  0  0
229231  4  0  0  0  0
231232  4  0  0  0  0
232233  1  0  0  0  0
233234  2  0  0  0  0
232235  4  0  0  0  0
234236  1  0  0  0  0
235236  4  0  0  0  0
102237  4  0  0  0  0
236237  4  0  0  0  0
237238  4  0  0  0  0
238239  4  0  0  0  0
239240  2  0  0  0  0
240241  4  0  0  0  0
238242  4  0  0  0  0
241242  4  0  0  0  0
241243  4  0  0  0  0
243244  4  0  0  0  0
244245  1  0  0  0  0
245246  2  0  0  0  0
225247  4  0  0  0  0
246247  1  0  0  0  0
244248  4  0  0  0  0
247248  4  0  0  0  0
227249  1  0  0  0  0
228250  1  0  0  0  0
230251  1  0  0  0  0
231252  1  0  0  0  0
233253  1  0  0  0  0
234254  1  0  0  0  0
239255  1  0  0  0  0
240256  1  0  0  0  0
242257  1  0  0  0  0
243258  1  0  0  0  0
245259  1  0  0  0  0
246260  1  0  0  0  0
104261  4  0  0  0  0
261262  4  0  0  0  0
262263  4  0  0  0  0
263264  2  0  0  0  0
264265  4  0  0  0  0
262266  4  0  0  0  0
265266  4  0  0  0  0
265267  4  0  0  0  0
267268  4  0  0  0  0
268269  1  0  0  0  0
269270  2  0  0  0  0
268271  4  0  0  0  0
270272  1  0  0  0  0
271272  4  0  0  0  0
108273  4  0  0  0  0
272273  4  0  0  0  0
273274  4  0  0  0  0
274275  4  0  0  0  0
275276  2  0  0  0  0
276277  4  0  0  0  0
274278  4  0  0  0  0
277278  4  0  0  0  0
277279  4  0  0  0  0
279280  4  0  0  0  0
280281  1  0  0  0  0
281282  2  0  0  0  0
261283  4  0  0  0  0
282283  1  0  0  0  0
280284  4  0  0  0  0
283284  4  0  0  0  0
263285  1  0  0  0  0
264286  1  0  0  0  0
266287  1  0  0  0  0
267288  1  0  0  0  0
269289  1  0  0  0  0
270290  1  0  0  0  0
275291  1  0  0  0  0
276292  1  0  0  0  0
278293  1  0  0  0  0
279294  1  0  0  0  0
281295  1  0  0  0  0
282296  1  0  0  0  0
110297  4  0  0  0  0
297298  4  0  0  0  0
298299  4  0  0  0  0
299300  2  0  0  0  0
300301  4  0  0  0  0
298302  4  0  0  0  0
301302  4  0  0  0  0
301303  4  0  0  0  0
303304  4  0  0  0  0
304305  1  0  0  0  0
305306  2  0  0  0  0
304307  4  0  0  0  0
306308  1  0  0  0  0
307308  4  0  0  0  0
114309  4  0  0  0  0
308309  4  0  0  0  0
309310  4  0  0  0  0
310311  4  0  0  0  0
311312  2  0  0  0  0
312313  4  0  0  0  0
310314  4  0  0  0  0
313314  4  0  0  0  0
313315  4  0  0  0  0
315316  4  0  0  0  0
316317  1  0  0  0  0
317318  2  0  0  0  0
297319  4  0  0  0  0
318319  1  0  0  0  0
316320  4  0  0  0  0
319320  4  0  0  0  0
299321  1  0  0  0  0
300322  1  0  0  0  0
302323  1  0  0  0  0
303324  1  0  0  0  0
305325  1  0  0  0  0
306326  1  0  0  0  0
311327  1  0  0  0  0
312328  1  0  0  0  0
314329  1  0  0  0  0
315330  1  0  0  0  0
317331  1  0  0  0  0
318332  1  0  0  0  0
M  END
