336

C 53.887899 -0.613739 0.571278
C 54.578444 -1.253615 -0.673045
C 53.929351 -1.781921 -1.762933
C 54.925969 -2.257049 -2.652512
C 56.151136 -2.014238 -2.072182
N 55.928438 -1.363977 -0.882461
C 57.574382 -2.426919 -2.641772
C 57.629339 -3.306979 -3.841613
C 58.195863 -2.796140 -5.025924
C 58.256840 -3.584261 -6.167212
O 58.812224 -3.127210 -7.328897
C 57.736209 -4.869319 -6.149810
O 57.783452 -5.642390 -7.280602
C 57.149399 -5.376264 -4.992557
O 56.613060 -6.633455 -5.007978
C 57.096279 -4.607594 -3.833523
C 58.704450 -1.934700 -2.057708
C 60.024942 -2.393047 -2.437907
C 60.923102 -1.742629 -1.708499
N 58.887221 -1.007873 -1.065276
C 60.224681 -0.823906 -0.833028
C 60.887377 0.013173 0.009551
C 60.094657 1.057688 0.902899
C 60.585396 2.253591 1.389609
C 59.569087 2.850014 2.178176
C 58.477339 2.009654 2.136060
N 58.791339 0.944351 1.322970
C 57.092194 2.220623 2.873859
C 57.014684 3.251199 3.933321
C 57.488083 2.998630 5.231412
C 57.400655 3.995681 6.190689
O 57.850912 3.770531 7.461007
C 56.856036 5.232823 5.867343
O 56.777073 6.204064 6.831964
C 56.399547 5.492401 4.579535
O 55.884438 6.733406 4.323450
C 56.474157 4.508730 3.606690
C 56.000859 1.512424 2.477053
C 54.713958 1.612901 3.144562
C 53.851423 0.820995 2.514758
C 54.549730 0.201606 1.414289
N 55.843127 0.619288 1.456005
H 52.837202 -0.822250 0.737604
H 52.859727 -1.819044 -1.904923
H 54.764879 -2.735770 -3.606877
H 56.654711 -0.993813 -0.277871
H 58.577789 -1.776013 -5.013930
H 59.126182 -2.229966 -7.136247
H 58.269342 -5.080248 -7.908355
H 56.854549 -6.968151 -5.888666
H 56.634276 -4.999168 -2.930672
H 60.252997 -3.158437 -3.156740
H 61.983000 -1.897516 -1.772195
H 61.570278 2.657058 1.202283
H 59.630769 3.785666 2.714192
H 58.133047 0.219709 1.041490
H 57.917515 2.029558 5.469957
H 57.680994 4.611376 7.925504
H 56.361934 6.957336 6.355898
H 55.650959 6.749521 3.375883
H 56.118708 4.672585 2.591272
H 54.489674 2.206873 4.011972
H 52.817096 0.674062 2.771088
C 125.818007 -0.686942 0.476880
C 125.127462 0.358904 1.406390
C 125.776555 1.282951 2.189397
C 124.779937 2.026236 2.871031
C 123.554770 1.524626 2.491389
N 123.777468 0.534250 1.565413
C 122.131524 1.973543 3.032879
C 122.076567 2.916511 4.183938
C 121.510042 4.190710 3.984024
C 121.449066 5.099857 5.031461
O 120.893682 6.338752 4.878009
C 121.969697 4.763080 6.271727
O 121.922454 5.665808 7.301974
C 122.556507 3.516057 6.474605
O 123.092845 3.218007 7.696052
C 122.609627 2.584880 5.441589
C 121.001456 1.530409 2.410751
C 119.680964 1.784530 2.949320
C 118.782804 1.240013 2.137790
N 120.818685 0.799963 1.266034
C 119.481225 0.620828 1.030040
C 118.818529 0.013173 0.009551
C 119.611249 -0.592010 -1.224482
C 119.120509 -0.765668 -2.503901
C 120.136819 -1.380924 -3.277864
C 121.228567 -1.549346 -2.453477
N 120.914567 -1.027070 -1.219292
C 122.613712 -2.211394 -2.841483
C 122.691222 -2.980930 -4.103370
C 122.217823 -4.301030 -4.181922
C 122.305251 -4.981882 -5.386398
O 121.854994 -6.268256 -5.484590
C 122.849870 -4.360722 -6.504089
O 122.928833 -5.053176 -7.684898
C 123.306358 -3.048838 -6.434887
O 123.821468 -2.491860 -7.573065
C 123.231748 -2.351514 -5.239992
C 123.705047 -2.003392 -2.056795
C 124.991948 -2.624869 -2.320288
C 125.854483 -2.212045 -1.396522
C 125.156176 -1.300425 -0.522666
N 123.862778 -1.236843 -0.937584
H 126.868704 -0.899940 0.637417
H 126.846179 1.411229 2.260700
H 124.941027 2.831372 3.572275
H 123.051195 0.040850 1.056388
H 121.128117 4.433061 2.993030
H 120.579724 6.375542 3.961054
H 121.436564 6.413745 6.913815
H 122.851356 3.987642 8.239463
H 123.071630 1.612970 5.596064
H 119.452909 2.290182 3.869569
H 117.722906 1.263143 2.303658
H 118.135628 -0.483794 -2.848028
H 120.075137 -1.667127 -4.317500
H 121.572858 -0.934857 -0.447389
H 121.788391 -4.773320 -3.302748
H 122.024912 -6.508795 -6.414600
H 123.343972 -4.404567 -8.295934
H 124.054947 -1.570115 -7.352770
H 123.587198 -1.327273 -5.145893
H 125.216232 -3.317096 -3.111506
H 126.888810 -2.496884 -1.318031
C 66.956179 0.014276 0.018041
C 65.747240 0.000821 0.009594
C 64.325711 0.009640 -0.002389
C 63.114041 0.017079 0.008474
C 68.372783 0.007601 0.018574
C 69.593479 0.017079 0.008474
C 82.623258 0.014276 0.018041
C 81.414318 0.000821 0.009594
C 79.992789 0.009640 -0.002389
C 78.781120 0.017079 0.008474
C 84.039862 0.007601 0.018574
C 85.260558 0.017079 0.008474
C 98.290336 0.014276 0.018041
C 97.081397 0.000821 0.009594
C 95.659868 0.009640 -0.002389
C 94.448198 0.017079 0.008474
C 99.706940 0.007601 0.018574
C 100.927636 0.017079 0.008474
C 113.957415 0.014276 0.018041
C 112.748475 0.000821 0.009594
C 111.326946 0.009640 -0.002389
C 110.115277 0.017079 0.008474
C 115.374019 0.007601 0.018574
C 116.594715 0.017079 0.008474
C 70.624138 -0.011128 -0.007563
C 71.408571 -1.357800 0.285922
C 70.874034 -2.527251 0.790507
C 71.911451 -3.492754 0.813098
C 73.051835 -2.880298 0.334516
N 72.752589 -1.563197 0.084489
C 74.453245 -3.572314 0.094175
C 74.460554 -5.035966 -0.133390
C 74.787221 -5.917069 0.914872
C 74.795468 -7.294958 0.689977
O 75.124713 -8.156174 1.705681
C 74.473735 -7.792069 -0.573463
O 74.474299 -9.138687 -0.827811
C 74.148258 -6.913636 -1.614057
O 73.846367 -7.449416 -2.845611
C 74.137516 -5.538510 -1.404573
C 75.588977 -2.829421 0.024871
C 76.880303 -3.424428 -0.252931
C 77.787244 -2.456097 -0.292683
N 75.796852 -1.483910 0.156369
C 77.123169 -1.194408 -0.030233
C 77.792519 -0.011128 -0.007563
C 77.009919 1.335968 0.284089
C 77.543645 2.499764 0.805179
C 76.508855 3.468471 0.821427
C 75.369647 2.862535 0.325251
N 75.670524 1.549635 0.056483
C 73.963306 3.552203 0.098346
C 73.921147 5.031652 0.044224
C 74.197588 5.724599 -1.145771
C 74.136121 7.112621 -1.152658
O 74.393886 7.802382 -2.306599
C 73.807873 7.808811 0.009383
O 73.744506 9.178323 -0.020668
C 73.542607 7.125510 1.191606
O 73.224127 7.856499 2.306922
C 73.597918 5.738682 1.218525
C 72.831054 2.804503 0.003126
C 71.533290 3.402679 -0.246214
C 70.626084 2.433629 -0.283418
C 71.296200 1.169763 -0.049414
N 72.628604 1.455391 0.099988
H 69.845730 -2.680573 1.085118
H 71.828667 -4.524921 1.124563
H 73.423949 -0.849529 -0.187022
H 75.036362 -5.495197 1.887925
H 75.380212 -7.616081 2.476623
H 74.228943 -9.191210 -1.774165
H 73.666452 -6.692087 -3.435711
H 73.891157 -4.835099 -2.198309
H 77.082946 -4.468407 -0.413598
H 78.833219 -2.605189 -0.489915
H 78.568541 2.647388 1.117528
H 76.593320 4.496110 1.143513
H 74.999183 0.839681 -0.227639
H 74.448127 5.171992 -2.048938
H 74.250147 8.736499 -2.056144
H 73.488091 9.405495 0.898520
H 73.078867 7.208935 3.021855
H 73.389744 5.170676 2.122168
H 71.329535 4.448503 -0.395189
H 69.575777 2.583329 -0.455389
C 86.291217 -0.011128 -0.007563
C 87.075650 -1.357800 0.285922
C 86.541113 -2.527251 0.790507
C 87.578530 -3.492754 0.813098
C 88.718913 -2.880298 0.334516
N 88.419667 -1.563197 0.084489
C 90.120324 -3.572314 0.094175
C 90.127632 -5.035966 -0.133390
C 90.454300 -5.917069 0.914872
C 90.462546 -7.294958 0.689977
O 90.791792 -8.156174 1.705681
C 90.140813 -7.792069 -0.573463
O 90.141378 -9.138687 -0.827811
C 89.815337 -6.913636 -1.614057
O 89.513446 -7.449416 -2.845611
C 89.804594 -5.538510 -1.404573
C 91.256055 -2.829421 0.024871
C 92.547381 -3.424428 -0.252931
C 93.454323 -2.456097 -0.292683
N 91.463930 -1.483910 0.156369
C 92.790248 -1.194408 -0.030233
C 93.459598 -0.011128 -0.007563
C 92.676998 1.335968 0.284089
C 93.210724 2.499764 0.805179
C 92.175933 3.468471 0.821427
C 91.036725 2.862535 0.325251
N 91.337603 1.549635 0.056483
C 89.630385 3.552203 0.098346
C 89.588226 5.031652 0.044224
C 89.864667 5.724599 -1.145771
C 89.803199 7.112621 -1.152658
O 90.060965 7.802382 -2.306599
C 89.474952 7.808811 0.009383
O 89.411584 9.178323 -0.020668
C 89.209686 7.125510 1.191606
O 88.891206 7.856499 2.306922
C 89.264997 5.738682 1.218525
C 88.498133 2.804503 0.003126
C 87.200368 3.402679 -0.246214
C 86.293162 2.433629 -0.283418
C 86.963279 1.169763 -0.049414
N 88.295683 1.455391 0.099988
H 85.512808 -2.680573 1.085118
H 87.495745 -4.524921 1.124563
H 89.091028 -0.849529 -0.187022
H 90.703440 -5.495197 1.887925
H 91.047290 -7.616081 2.476623
H 89.896022 -9.191210 -1.774165
H 89.333531 -6.692087 -3.435711
H 89.558236 -4.835099 -2.198309
H 92.750024 -4.468407 -0.413598
H 94.500297 -2.605189 -0.489915
H 94.235619 2.647388 1.117528
H 92.260399 4.496110 1.143513
H 90.666261 0.839681 -0.227639
H 90.115205 5.171992 -2.048938
H 89.917225 8.736499 -2.056144
H 89.155170 9.405495 0.898520
H 88.745946 7.208935 3.021855
H 89.056822 5.170676 2.122168
H 86.996613 4.448503 -0.395189
H 85.242855 2.583329 -0.455389
C 101.958295 -0.011128 -0.007563
C 102.742728 -1.357800 0.285922
C 102.208191 -2.527251 0.790507
C 103.245608 -3.492754 0.813098
C 104.385992 -2.880298 0.334516
N 104.086746 -1.563197 0.084489
C 105.787402 -3.572314 0.094175
C 105.794711 -5.035966 -0.133390
C 106.121378 -5.917069 0.914872
C 106.129625 -7.294958 0.689977
O 106.458870 -8.156174 1.705681
C 105.807892 -7.792069 -0.573463
O 105.808456 -9.138687 -0.827811
C 105.482416 -6.913636 -1.614057
O 105.180524 -7.449416 -2.845611
C 105.471673 -5.538510 -1.404573
C 106.923134 -2.829421 0.024871
C 108.214460 -3.424428 -0.252931
C 109.121401 -2.456097 -0.292683
N 107.131009 -1.483910 0.156369
C 108.457326 -1.194408 -0.030233
C 109.126676 -0.011128 -0.007563
C 108.344076 1.335968 0.284089
C 108.877802 2.499764 0.805179
C 107.843012 3.468471 0.821427
C 106.703804 2.862535 0.325251
N 107.004681 1.549635 0.056483
C 105.297463 3.552203 0.098346
C 105.255304 5.031652 0.044224
C 105.531745 5.724599 -1.145771
C 105.470278 7.112621 -1.152658
O 105.728043 7.802382 -2.306599
C 105.142030 7.808811 0.009383
O 105.078663 9.178323 -0.020668
C 104.876764 7.125510 1.191606
O 104.558284 7.856499 2.306922
C 104.932075 5.738682 1.218525
C 104.165211 2.804503 0.003126
C 102.867447 3.402679 -0.246214
C 101.960241 2.433629 -0.283418
C 102.630357 1.169763 -0.049414
N 103.962761 1.455391 0.099988
H 101.179887 -2.680573 1.085118
H 103.162824 -4.524921 1.124563
H 104.758106 -0.849529 -0.187022
H 106.370519 -5.495197 1.887925
H 106.714369 -7.616081 2.476623
H 105.563100 -9.191210 -1.774165
H 105.000609 -6.692087 -3.435711
H 105.225314 -4.835099 -2.198309
H 108.417103 -4.468407 -0.413598
H 110.167376 -2.605189 -0.489915
H 109.902698 2.647388 1.117528
H 107.927477 4.496110 1.143513
H 106.333340 0.839681 -0.227639
H 105.782284 5.171992 -2.048938
H 105.584304 8.736499 -2.056144
H 104.822248 9.405495 0.898520
H 104.413025 7.208935 3.021855
H 104.723901 5.170676 2.122168
H 102.663692 4.448503 -0.395189
H 100.909934 2.583329 -0.455389
