 xtb: 6.5.1 (b24c23e)
          07292219123D

336370  0     0  0            999 V2000
   54.4619   -0.3544    0.1546 C   0  0  0  0  0  0  0  0  0  0  0  0
   55.0770   -1.1006   -0.8424 C   0  0  0  0  0  0  0  0  0  0  0  0
   54.4309   -1.8793   -1.8432 C   0  0  0  0  0  0  0  0  0  0  0  0
   55.3972   -2.4457   -2.6257 C   0  0  0  0  0  0  0  0  0  0  0  0
   56.6661   -2.0455   -2.1174 C   0  0  0  0  0  0  0  0  0  0  0  0
   56.4213   -1.2262   -1.0518 N   0  0  0  0  0  0  0  0  0  0  0  0
   57.9342   -2.3992   -2.5926 C   0  0  0  0  0  0  0  0  0  0  0  0
   57.9840   -3.3125   -3.7609 C   0  0  0  0  0  0  0  0  0  0  0  0
   58.6081   -2.8907   -4.9385 C   0  0  0  0  0  0  0  0  0  0  0  0
   58.6510   -3.7369   -6.0392 C   0  0  0  0  0  0  0  0  0  0  0  0
   59.2376   -3.3893   -7.2276 O   0  0  0  0  0  0  0  0  0  0  0  0
   58.0800   -5.0053   -5.9715 C   0  0  0  0  0  0  0  0  0  0  0  0
   58.1105   -5.8602   -7.0416 O   0  0  0  0  0  0  0  0  0  0  0  0
   57.4606   -5.4295   -4.7948 C   0  0  0  0  0  0  0  0  0  0  0  0
   56.9122   -6.6676   -4.7375 O   0  0  0  0  0  0  0  0  0  0  0  0
   57.4102   -4.5824   -3.6937 C   0  0  0  0  0  0  0  0  0  0  0  0
   59.1425   -1.9559   -2.0481 C   0  0  0  0  0  0  0  0  0  0  0  0
   60.4465   -2.4210   -2.4853 C   0  0  0  0  0  0  0  0  0  0  0  0
   61.3571   -1.7754   -1.7273 C   0  0  0  0  0  0  0  0  0  0  0  0
   59.2832   -1.0588   -1.0339 N   0  0  0  0  0  0  0  0  0  0  0  0
   60.6085   -0.9186   -0.8286 C   0  0  0  0  0  0  0  0  0  0  0  0
   61.2332   -0.0501    0.0895 C   0  0  0  0  0  0  0  0  0  0  0  0
   60.5866    0.8043    1.0022 C   0  0  0  0  0  0  0  0  0  0  0  0
   61.2175    1.7297    1.8753 C   0  0  0  0  0  0  0  0  0  0  0  0
   60.2433    2.3553    2.6026 C   0  0  0  0  0  0  0  0  0  0  0  0
   58.9866    1.8190    2.2062 C   0  0  0  0  0  0  0  0  0  0  0  0
   59.2457    0.8959    1.2271 N   0  0  0  0  0  0  0  0  0  0  0  0
   57.7212    2.1557    2.6984 C   0  0  0  0  0  0  0  0  0  0  0  0
   57.6681    3.1656    3.7834 C   0  0  0  0  0  0  0  0  0  0  0  0
   58.3301    2.9417    4.9911 C   0  0  0  0  0  0  0  0  0  0  0  0
   58.2758    3.8927    6.0034 C   0  0  0  0  0  0  0  0  0  0  0  0
   58.9098    3.6813    7.1825 O   0  0  0  0  0  0  0  0  0  0  0  0
   57.5636    5.0771    5.8078 C   0  0  0  0  0  0  0  0  0  0  0  0
   57.5314    5.9981    6.8217 O   0  0  0  0  0  0  0  0  0  0  0  0
   56.9047    5.3018    4.6017 C   0  0  0  0  0  0  0  0  0  0  0  0
   56.2301    6.4884    4.4815 O   0  0  0  0  0  0  0  0  0  0  0  0
   56.9513    4.3503    3.5907 C   0  0  0  0  0  0  0  0  0  0  0  0
   56.5167    1.6088    2.2410 C   0  0  0  0  0  0  0  0  0  0  0  0
   55.2144    1.8962    2.8219 C   0  0  0  0  0  0  0  0  0  0  0  0
   54.3137    1.1877    2.1113 C   0  0  0  0  0  0  0  0  0  0  0  0
   55.0646    0.4637    1.1012 C   0  0  0  0  0  0  0  0  0  0  0  0
   56.3887    0.7311    1.2181 N   0  0  0  0  0  0  0  0  0  0  0  0
   53.3786   -0.4154    0.1831 H   0  0  0  0  0  0  0  0  0  0  0  0
   53.3620   -1.9775   -1.9459 H   0  0  0  0  0  0  0  0  0  0  0  0
   55.2493   -3.0814   -3.4835 H   0  0  0  0  0  0  0  0  0  0  0  0
   57.1436   -0.7765   -0.4993 H   0  0  0  0  0  0  0  0  0  0  0  0
   59.0420   -1.8997   -5.0027 H   0  0  0  0  0  0  0  0  0  0  0  0
   59.6123   -2.5000   -7.1787 H   0  0  0  0  0  0  0  0  0  0  0  0
   58.5765   -5.4146   -7.7670 H   0  0  0  0  0  0  0  0  0  0  0  0
   57.0523   -7.1033   -5.5944 H   0  0  0  0  0  0  0  0  0  0  0  0
   56.9439   -4.9303   -2.7810 H   0  0  0  0  0  0  0  0  0  0  0  0
   60.6200   -3.1574   -3.2534 H   0  0  0  0  0  0  0  0  0  0  0  0
   62.4320   -1.8576   -1.7513 H   0  0  0  0  0  0  0  0  0  0  0  0
   62.2816    1.8947    1.9269 H   0  0  0  0  0  0  0  0  0  0  0  0
   60.3801    3.1254    3.3440 H   0  0  0  0  0  0  0  0  0  0  0  0
   58.5312    0.3622    0.7432 H   0  0  0  0  0  0  0  0  0  0  0  0
   58.8700    2.0193    5.1619 H   0  0  0  0  0  0  0  0  0  0  0  0
   58.7522    4.4496    7.7558 H   0  0  0  0  0  0  0  0  0  0  0  0
   56.9961    6.7511    6.5245 H   0  0  0  0  0  0  0  0  0  0  0  0
   55.8002    6.5534    3.6187 H   0  0  0  0  0  0  0  0  0  0  0  0
   56.4490    4.5389    2.6492 H   0  0  0  0  0  0  0  0  0  0  0  0
   55.0394    2.5397    3.6692 H   0  0  0  0  0  0  0  0  0  0  0  0
   53.2437    1.1346    2.2388 H   0  0  0  0  0  0  0  0  0  0  0  0
  125.2463   -0.2212    0.3459 C   0  0  0  0  0  0  0  0  0  0  0  0
  124.6353    0.5734    1.3073 C   0  0  0  0  0  0  0  0  0  0  0  0
  125.2850    1.3345    2.3193 C   0  0  0  0  0  0  0  0  0  0  0  0
  124.3229    1.9752    3.0479 C   0  0  0  0  0  0  0  0  0  0  0  0
  123.0528    1.6138    2.5143 C   0  0  0  0  0  0  0  0  0  0  0  0
  123.2931    0.7775    1.4610 N   0  0  0  0  0  0  0  0  0  0  0  0
  121.7883    2.0246    2.9515 C   0  0  0  0  0  0  0  0  0  0  0  0
  121.7463    2.9295    4.1269 C   0  0  0  0  0  0  0  0  0  0  0  0
  121.1715    4.1976    4.0031 C   0  0  0  0  0  0  0  0  0  0  0  0
  121.1366    5.0501    5.0994 C   0  0  0  0  0  0  0  0  0  0  0  0
  120.5973    6.3088    5.0513 O   0  0  0  0  0  0  0  0  0  0  0  0
  121.6662    4.6436    6.3215 C   0  0  0  0  0  0  0  0  0  0  0  0
  121.6420    5.4639    7.4187 O   0  0  0  0  0  0  0  0  0  0  0  0
  122.2368    3.3759    6.4474 C   0  0  0  0  0  0  0  0  0  0  0  0
  122.7455    2.9880    7.6423 O   0  0  0  0  0  0  0  0  0  0  0  0
  122.2795    2.5233    5.3504 C   0  0  0  0  0  0  0  0  0  0  0  0
  120.5782    1.6418    2.3669 C   0  0  0  0  0  0  0  0  0  0  0  0
  119.2741    1.9998    2.8956 C   0  0  0  0  0  0  0  0  0  0  0  0
  118.3615    1.4382    2.0758 C   0  0  0  0  0  0  0  0  0  0  0  0
  120.4348    0.8680    1.2561 N   0  0  0  0  0  0  0  0  0  0  0  0
  119.1087    0.7365    1.0503 C   0  0  0  0  0  0  0  0  0  0  0  0
  118.4822    0.0395   -0.0025 C   0  0  0  0  0  0  0  0  0  0  0  0
  119.1254   -0.6765   -1.0296 C   0  0  0  0  0  0  0  0  0  0  0  0
  118.4920   -1.3118   -2.1307 C   0  0  0  0  0  0  0  0  0  0  0  0
  119.4632   -1.8873   -2.9017 C   0  0  0  0  0  0  0  0  0  0  0  0
  120.7204   -1.6347   -2.2855 C   0  0  0  0  0  0  0  0  0  0  0  0
  120.4646   -0.8891   -1.1645 N   0  0  0  0  0  0  0  0  0  0  0  0
  121.9835   -2.0457   -2.7238 C   0  0  0  0  0  0  0  0  0  0  0  0
  122.0334   -2.8631   -3.9605 C   0  0  0  0  0  0  0  0  0  0  0  0
  121.3633   -4.0851   -4.0286 C   0  0  0  0  0  0  0  0  0  0  0  0
  121.4132   -4.8443   -5.1919 C   0  0  0  0  0  0  0  0  0  0  0  0
  120.7709   -6.0354   -5.2654 O   0  0  0  0  0  0  0  0  0  0  0  0
  122.1293   -4.3793   -6.2961 C   0  0  0  0  0  0  0  0  0  0  0  0
  122.1569   -5.1469   -7.4306 O   0  0  0  0  0  0  0  0  0  0  0  0
  122.7967   -3.1589   -6.2289 C   0  0  0  0  0  0  0  0  0  0  0  0
  123.4750   -2.7664   -7.3530 O   0  0  0  0  0  0  0  0  0  0  0  0
  122.7545   -2.4010   -5.0655 C   0  0  0  0  0  0  0  0  0  0  0  0
  123.1886   -1.7414   -2.0800 C   0  0  0  0  0  0  0  0  0  0  0  0
  124.4874   -2.2511   -2.4913 C   0  0  0  0  0  0  0  0  0  0  0  0
  125.3890   -1.7434   -1.6266 C   0  0  0  0  0  0  0  0  0  0  0  0
  124.6419   -0.9288   -0.6849 C   0  0  0  0  0  0  0  0  0  0  0  0
  123.3194   -0.9603   -0.9819 N   0  0  0  0  0  0  0  0  0  0  0  0
  126.3281   -0.2839    0.4102 H   0  0  0  0  0  0  0  0  0  0  0  0
  126.3536    1.3836    2.4560 H   0  0  0  0  0  0  0  0  0  0  0  0
  124.4745    2.6445    3.8790 H   0  0  0  0  0  0  0  0  0  0  0  0
  122.5692    0.3702    0.8784 H   0  0  0  0  0  0  0  0  0  0  0  0
  120.7701    4.5257    3.0516 H   0  0  0  0  0  0  0  0  0  0  0  0
  120.2477    6.4992    4.1709 H   0  0  0  0  0  0  0  0  0  0  0  0
  121.2115    6.2946    7.1611 H   0  0  0  0  0  0  0  0  0  0  0  0
  122.6176    3.7117    8.2777 H   0  0  0  0  0  0  0  0  0  0  0  0
  122.7079    1.5360    5.4655 H   0  0  0  0  0  0  0  0  0  0  0  0
  119.1013    2.5837    3.7852 H   0  0  0  0  0  0  0  0  0  0  0  0
  117.2858    1.4750    2.1408 H   0  0  0  0  0  0  0  0  0  0  0  0
  117.4285   -1.3137   -2.3072 H   0  0  0  0  0  0  0  0  0  0  0  0
  119.3241   -2.4331   -3.8205 H   0  0  0  0  0  0  0  0  0  0  0  0
  121.1805   -0.5463   -0.5323 H   0  0  0  0  0  0  0  0  0  0  0  0
  120.8200   -4.4652   -3.1732 H   0  0  0  0  0  0  0  0  0  0  0  0
  120.9246   -6.4114   -6.1479 H   0  0  0  0  0  0  0  0  0  0  0  0
  122.6942   -4.6831   -8.0924 H   0  0  0  0  0  0  0  0  0  0  0  0
  123.9091   -1.9147   -7.2124 H   0  0  0  0  0  0  0  0  0  0  0  0
  123.2632   -1.4450   -5.0259 H   0  0  0  0  0  0  0  0  0  0  0  0
  124.6595   -2.9200   -3.3193 H   0  0  0  0  0  0  0  0  0  0  0  0
  126.4571   -1.8929   -1.5990 H   0  0  0  0  0  0  0  0  0  0  0  0
   66.4354    0.0219    0.0954 C   0  0  0  0  0  0  0  0  0  0  0  0
   65.2072    0.0162    0.0985 C   0  0  0  0  0  0  0  0  0  0  0  0
   63.8627    0.0029    0.0990 C   0  0  0  0  0  0  0  0  0  0  0  0
   62.6390   -0.0168    0.0951 C   0  0  0  0  0  0  0  0  0  0  0  0
   67.7798    0.0256    0.0849 C   0  0  0  0  0  0  0  0  0  0  0  0
   69.0038    0.0258    0.0722 C   0  0  0  0  0  0  0  0  0  0  0  0
   82.4603    0.0063    0.0507 C   0  0  0  0  0  0  0  0  0  0  0  0
   81.2313   -0.0005    0.0510 C   0  0  0  0  0  0  0  0  0  0  0  0
   79.8881   -0.0044    0.0499 C   0  0  0  0  0  0  0  0  0  0  0  0
   78.6634   -0.0100    0.0440 C   0  0  0  0  0  0  0  0  0  0  0  0
   83.8035    0.0082    0.0473 C   0  0  0  0  0  0  0  0  0  0  0  0
   85.0281    0.0145    0.0419 C   0  0  0  0  0  0  0  0  0  0  0  0
   98.4860    0.0085    0.0508 C   0  0  0  0  0  0  0  0  0  0  0  0
   97.2570   -0.0018    0.0590 C   0  0  0  0  0  0  0  0  0  0  0  0
   95.9138   -0.0079    0.0624 C   0  0  0  0  0  0  0  0  0  0  0  0
   94.6892   -0.0150    0.0602 C   0  0  0  0  0  0  0  0  0  0  0  0
   99.8291    0.0162    0.0368 C   0  0  0  0  0  0  0  0  0  0  0  0
  101.0536    0.0270    0.0200 C   0  0  0  0  0  0  0  0  0  0  0  0
  114.5086    0.0539   -0.1010 C   0  0  0  0  0  0  0  0  0  0  0  0
  113.2804    0.0523   -0.1149 C   0  0  0  0  0  0  0  0  0  0  0  0
  111.9359    0.0445   -0.1190 C   0  0  0  0  0  0  0  0  0  0  0  0
  110.7120    0.0323   -0.1180 C   0  0  0  0  0  0  0  0  0  0  0  0
  115.8531    0.0557   -0.0770 C   0  0  0  0  0  0  0  0  0  0  0  0
  117.0764    0.0562   -0.0448 C   0  0  0  0  0  0  0  0  0  0  0  0
   70.4090    0.0203    0.0578 C   0  0  0  0  0  0  0  0  0  0  0  0
   71.0285   -1.2443    0.0384 C   0  0  0  0  0  0  0  0  0  0  0  0
   70.3718   -2.5014    0.0652 C   0  0  0  0  0  0  0  0  0  0  0  0
   71.3295   -3.4775    0.0142 C   0  0  0  0  0  0  0  0  0  0  0  0
   72.5994   -2.8430   -0.0539 C   0  0  0  0  0  0  0  0  0  0  0  0
   72.3670   -1.4938   -0.0254 N   0  0  0  0  0  0  0  0  0  0  0  0
   73.8546   -3.4617   -0.1205 C   0  0  0  0  0  0  0  0  0  0  0  0
   73.8569   -4.9439   -0.1925 C   0  0  0  0  0  0  0  0  0  0  0  0
   74.4802   -5.6971    0.8030 C   0  0  0  0  0  0  0  0  0  0  0  0
   74.4857   -7.0884    0.7511 C   0  0  0  0  0  0  0  0  0  0  0  0
   75.0803   -7.8325    1.7195 O   0  0  0  0  0  0  0  0  0  0  0  0
   73.8669   -7.7454   -0.3175 C   0  0  0  0  0  0  0  0  0  0  0  0
   73.8599   -9.1010   -0.3993 O   0  0  0  0  0  0  0  0  0  0  0  0
   73.2483   -6.9840   -1.3126 C   0  0  0  0  0  0  0  0  0  0  0  0
   72.6651   -7.6888   -2.3339 O   0  0  0  0  0  0  0  0  0  0  0  0
   73.2324   -5.5973   -1.2569 C   0  0  0  0  0  0  0  0  0  0  0  0
   75.0826   -2.7982   -0.1254 C   0  0  0  0  0  0  0  0  0  0  0  0
   76.3649   -3.4664   -0.2566 C   0  0  0  0  0  0  0  0  0  0  0  0
   77.3064   -2.5013   -0.2062 C   0  0  0  0  0  0  0  0  0  0  0  0
   75.2661   -1.4523   -0.0227 N   0  0  0  0  0  0  0  0  0  0  0  0
   76.5977   -1.2459   -0.0576 C   0  0  0  0  0  0  0  0  0  0  0  0
   77.2595   -0.0045    0.0387 C   0  0  0  0  0  0  0  0  0  0  0  0
   76.6397    1.2575    0.1244 C   0  0  0  0  0  0  0  0  0  0  0  0
   77.2968    2.5093    0.2446 C   0  0  0  0  0  0  0  0  0  0  0  0
   76.3394    3.4860    0.2737 C   0  0  0  0  0  0  0  0  0  0  0  0
   75.0688    2.8583    0.1635 C   0  0  0  0  0  0  0  0  0  0  0  0
   75.3012    1.5105    0.0877 N   0  0  0  0  0  0  0  0  0  0  0  0
   73.8139    3.4792    0.1507 C   0  0  0  0  0  0  0  0  0  0  0  0
   73.8090    4.9630    0.1967 C   0  0  0  0  0  0  0  0  0  0  0  0
   74.4272    5.6976   -0.8156 C   0  0  0  0  0  0  0  0  0  0  0  0
   74.4172    7.0870   -0.7748 C   0  0  0  0  0  0  0  0  0  0  0  0
   75.0077    7.8095   -1.7576 O   0  0  0  0  0  0  0  0  0  0  0  0
   73.7949    7.7470    0.2861 C   0  0  0  0  0  0  0  0  0  0  0  0
   73.8039    9.1168    0.3016 O   0  0  0  0  0  0  0  0  0  0  0  0
   73.1821    7.0134    1.2989 C   0  0  0  0  0  0  0  0  0  0  0  0
   72.5967    7.7306    2.3088 O   0  0  0  0  0  0  0  0  0  0  0  0
   73.1839    5.6248    1.2571 C   0  0  0  0  0  0  0  0  0  0  0  0
   72.5853    2.8174    0.0991 C   0  0  0  0  0  0  0  0  0  0  0  0
   71.3026    3.4938    0.0257 C   0  0  0  0  0  0  0  0  0  0  0  0
   70.3608    2.5277    0.0083 C   0  0  0  0  0  0  0  0  0  0  0  0
   71.0698    1.2647    0.0569 C   0  0  0  0  0  0  0  0  0  0  0  0
   72.4022    1.4684    0.1001 N   0  0  0  0  0  0  0  0  0  0  0  0
   69.3034   -2.6336    0.1225 H   0  0  0  0  0  0  0  0  0  0  0  0
   71.1714   -4.5434    0.0334 H   0  0  0  0  0  0  0  0  0  0  0  0
   73.0931   -0.7854   -0.0417 H   0  0  0  0  0  0  0  0  0  0  0  0
   74.9511   -5.1985    1.6426 H   0  0  0  0  0  0  0  0  0  0  0  0
   75.4750   -7.2702    2.3990 H   0  0  0  0  0  0  0  0  0  0  0  0
   73.3864   -9.3540   -1.2081 H   0  0  0  0  0  0  0  0  0  0  0  0
   72.2680   -7.0924   -2.9817 H   0  0  0  0  0  0  0  0  0  0  0  0
   72.7588   -5.0296   -2.0493 H   0  0  0  0  0  0  0  0  0  0  0  0
   76.5042   -4.5276   -0.3844 H   0  0  0  0  0  0  0  0  0  0  0  0
   78.3780   -2.6018   -0.2719 H   0  0  0  0  0  0  0  0  0  0  0  0
   78.3655    2.6370    0.3050 H   0  0  0  0  0  0  0  0  0  0  0  0
   76.4974    4.5475    0.3713 H   0  0  0  0  0  0  0  0  0  0  0  0
   74.5751    0.8055    0.0179 H   0  0  0  0  0  0  0  0  0  0  0  0
   74.8983    5.1970   -1.6517 H   0  0  0  0  0  0  0  0  0  0  0  0
   74.8921    8.7526   -1.5549 H   0  0  0  0  0  0  0  0  0  0  0  0
   73.3304    9.4099    1.0964 H   0  0  0  0  0  0  0  0  0  0  0  0
   72.1907    7.1417    2.9584 H   0  0  0  0  0  0  0  0  0  0  0  0
   72.7173    5.0603    2.0558 H   0  0  0  0  0  0  0  0  0  0  0  0
   71.1626    4.5616   -0.0219 H   0  0  0  0  0  0  0  0  0  0  0  0
   69.2890    2.6330   -0.0441 H   0  0  0  0  0  0  0  0  0  0  0  0
   86.4319    0.0108    0.0363 C   0  0  0  0  0  0  0  0  0  0  0  0
   87.0532   -1.2538    0.0360 C   0  0  0  0  0  0  0  0  0  0  0  0
   86.3978   -2.5111    0.0719 C   0  0  0  0  0  0  0  0  0  0  0  0
   87.3567   -3.4866    0.0316 C   0  0  0  0  0  0  0  0  0  0  0  0
   88.6260   -2.8514   -0.0385 C   0  0  0  0  0  0  0  0  0  0  0  0
   88.3919   -1.5021   -0.0212 N   0  0  0  0  0  0  0  0  0  0  0  0
   89.8816   -3.4696   -0.0989 C   0  0  0  0  0  0  0  0  0  0  0  0
   89.8846   -4.9521   -0.1636 C   0  0  0  0  0  0  0  0  0  0  0  0
   90.5051   -5.7004    0.8373 C   0  0  0  0  0  0  0  0  0  0  0  0
   90.5110   -7.0919    0.7922 C   0  0  0  0  0  0  0  0  0  0  0  0
   91.1025   -7.8312    1.7661 O   0  0  0  0  0  0  0  0  0  0  0  0
   89.8958   -7.7541   -0.2754 C   0  0  0  0  0  0  0  0  0  0  0  0
   89.8894   -9.1100   -0.3508 O   0  0  0  0  0  0  0  0  0  0  0  0
   89.2803   -6.9976   -1.2762 C   0  0  0  0  0  0  0  0  0  0  0  0
   88.7009   -7.7074   -2.2960 O   0  0  0  0  0  0  0  0  0  0  0  0
   89.2636   -5.6107   -1.2269 C   0  0  0  0  0  0  0  0  0  0  0  0
   91.1097   -2.8060   -0.1045 C   0  0  0  0  0  0  0  0  0  0  0  0
   92.3923   -3.4746   -0.2295 C   0  0  0  0  0  0  0  0  0  0  0  0
   93.3336   -2.5091   -0.1814 C   0  0  0  0  0  0  0  0  0  0  0  0
   91.2927   -1.4597   -0.0075 N   0  0  0  0  0  0  0  0  0  0  0  0
   92.6244   -1.2533   -0.0401 C   0  0  0  0  0  0  0  0  0  0  0  0
   93.2854   -0.0113    0.0534 C   0  0  0  0  0  0  0  0  0  0  0  0
   92.6640    1.2505    0.1335 C   0  0  0  0  0  0  0  0  0  0  0  0
   93.3193    2.5028    0.2556 C   0  0  0  0  0  0  0  0  0  0  0  0
   92.3608    3.4789    0.2758 C   0  0  0  0  0  0  0  0  0  0  0  0
   91.0917    2.8500    0.1573 C   0  0  0  0  0  0  0  0  0  0  0  0
   91.3255    1.5023    0.0872 N   0  0  0  0  0  0  0  0  0  0  0  0
   89.8363    3.4705    0.1302 C   0  0  0  0  0  0  0  0  0  0  0  0
   89.8322    4.9545    0.1703 C   0  0  0  0  0  0  0  0  0  0  0  0
   90.4620    5.6847   -0.8381 C   0  0  0  0  0  0  0  0  0  0  0  0
   90.4557    7.0742   -0.8010 C   0  0  0  0  0  0  0  0  0  0  0  0
   91.0580    7.7923   -1.7796 O   0  0  0  0  0  0  0  0  0  0  0  0
   89.8255    7.7388    0.2524 C   0  0  0  0  0  0  0  0  0  0  0  0
   89.8394    9.1085    0.2651 O   0  0  0  0  0  0  0  0  0  0  0  0
   89.2005    7.0096    1.2610 C   0  0  0  0  0  0  0  0  0  0  0  0
   88.6080    7.7311    2.2636 O   0  0  0  0  0  0  0  0  0  0  0  0
   89.1983    5.6208    1.2226 C   0  0  0  0  0  0  0  0  0  0  0  0
   88.6086    2.8087    0.0696 C   0  0  0  0  0  0  0  0  0  0  0  0
   87.3269    3.4846   -0.0217 C   0  0  0  0  0  0  0  0  0  0  0  0
   86.3851    2.5184   -0.0416 C   0  0  0  0  0  0  0  0  0  0  0  0
   87.0934    1.2558    0.0246 C   0  0  0  0  0  0  0  0  0  0  0  0
   88.4249    1.4592    0.0788 N   0  0  0  0  0  0  0  0  0  0  0  0
   85.3294   -2.6442    0.1269 H   0  0  0  0  0  0  0  0  0  0  0  0
   87.1998   -4.5526    0.0590 H   0  0  0  0  0  0  0  0  0  0  0  0
   89.1171   -0.7929   -0.0422 H   0  0  0  0  0  0  0  0  0  0  0  0
   90.9733   -5.1977    1.6760 H   0  0  0  0  0  0  0  0  0  0  0  0
   91.4952   -7.2656    2.4438 H   0  0  0  0  0  0  0  0  0  0  0  0
   89.4184   -9.3671   -1.1598 H   0  0  0  0  0  0  0  0  0  0  0  0
   88.3066   -7.1144   -2.9487 H   0  0  0  0  0  0  0  0  0  0  0  0
   88.7923   -5.0468   -2.0233 H   0  0  0  0  0  0  0  0  0  0  0  0
   92.5321   -4.5364   -0.3520 H   0  0  0  0  0  0  0  0  0  0  0  0
   94.4054   -2.6098   -0.2439 H   0  0  0  0  0  0  0  0  0  0  0  0
   94.3874    2.6315    0.3235 H   0  0  0  0  0  0  0  0  0  0  0  0
   92.5175    4.5407    0.3724 H   0  0  0  0  0  0  0  0  0  0  0  0
   90.6006    0.7965    0.0133 H   0  0  0  0  0  0  0  0  0  0  0  0
   90.9398    5.1806   -1.6682 H   0  0  0  0  0  0  0  0  0  0  0  0
   90.9433    8.7363   -1.5808 H   0  0  0  0  0  0  0  0  0  0  0  0
   89.3587    9.4053    1.0542 H   0  0  0  0  0  0  0  0  0  0  0  0
   88.1935    7.1451    2.9105 H   0  0  0  0  0  0  0  0  0  0  0  0
   88.7225    5.0598    2.0183 H   0  0  0  0  0  0  0  0  0  0  0  0
   87.1878    4.5520   -0.0786 H   0  0  0  0  0  0  0  0  0  0  0  0
   85.3139    2.6233   -0.1056 H   0  0  0  0  0  0  0  0  0  0  0  0
  102.4572    0.0284   -0.0033 C   0  0  0  0  0  0  0  0  0  0  0  0
  103.0829   -1.2339   -0.0152 C   0  0  0  0  0  0  0  0  0  0  0  0
  102.4327   -2.4936    0.0363 C   0  0  0  0  0  0  0  0  0  0  0  0
  103.3941   -3.4659   -0.0184 C   0  0  0  0  0  0  0  0  0  0  0  0
  104.6597   -2.8266   -0.1157 C   0  0  0  0  0  0  0  0  0  0  0  0
  104.4210   -1.4778   -0.0977 N   0  0  0  0  0  0  0  0  0  0  0  0
  105.9161   -3.4390   -0.2036 C   0  0  0  0  0  0  0  0  0  0  0  0
  105.9283   -4.9218   -0.2527 C   0  0  0  0  0  0  0  0  0  0  0  0
  106.5868   -5.6512    0.7381 C   0  0  0  0  0  0  0  0  0  0  0  0
  106.6027   -7.0430    0.7128 C   0  0  0  0  0  0  0  0  0  0  0  0
  107.2311   -7.7634    1.6775 O   0  0  0  0  0  0  0  0  0  0  0  0
  105.9586   -7.7252   -0.3248 C   0  0  0  0  0  0  0  0  0  0  0  0
  105.9602   -9.0819   -0.3802 O   0  0  0  0  0  0  0  0  0  0  0  0
  105.3058   -6.9877   -1.3162 C   0  0  0  0  0  0  0  0  0  0  0  0
  104.6998   -7.7168   -2.3066 O   0  0  0  0  0  0  0  0  0  0  0  0
  105.2796   -5.6003   -1.2864 C   0  0  0  0  0  0  0  0  0  0  0  0
  107.1402   -2.7681   -0.2451 C   0  0  0  0  0  0  0  0  0  0  0  0
  108.4219   -3.4300   -0.4099 C   0  0  0  0  0  0  0  0  0  0  0  0
  109.3597   -2.4603   -0.3829 C   0  0  0  0  0  0  0  0  0  0  0  0
  107.3188   -1.4220   -0.1475 N   0  0  0  0  0  0  0  0  0  0  0  0
  108.6490   -1.2089   -0.2125 C   0  0  0  0  0  0  0  0  0  0  0  0
  109.3065    0.0331   -0.1101 C   0  0  0  0  0  0  0  0  0  0  0  0
  108.6835    1.2904    0.0057 C   0  0  0  0  0  0  0  0  0  0  0  0
  109.3367    2.5430    0.1384 C   0  0  0  0  0  0  0  0  0  0  0  0
  108.3757    3.5153    0.1901 C   0  0  0  0  0  0  0  0  0  0  0  0
  107.1068    2.8840    0.0811 C   0  0  0  0  0  0  0  0  0  0  0  0
  107.3435    1.5387   -0.0149 N   0  0  0  0  0  0  0  0  0  0  0  0
  105.8491    3.5002    0.0815 C   0  0  0  0  0  0  0  0  0  0  0  0
  105.8406    4.9835    0.1449 C   0  0  0  0  0  0  0  0  0  0  0  0
  106.4517    5.7317   -0.8617 C   0  0  0  0  0  0  0  0  0  0  0  0
  106.4432    7.1203   -0.8015 C   0  0  0  0  0  0  0  0  0  0  0  0
  107.0274    7.8562   -1.7781 O   0  0  0  0  0  0  0  0  0  0  0  0
  105.8299    7.7659    0.2735 C   0  0  0  0  0  0  0  0  0  0  0  0
  105.8420    9.1353    0.3092 O   0  0  0  0  0  0  0  0  0  0  0  0
  105.2233    7.0187    1.2801 C   0  0  0  0  0  0  0  0  0  0  0  0
  104.6470    7.7221    2.3048 O   0  0  0  0  0  0  0  0  0  0  0  0
  105.2229    5.6308    1.2185 C   0  0  0  0  0  0  0  0  0  0  0  0
  104.6234    2.8344    0.0282 C   0  0  0  0  0  0  0  0  0  0  0  0
  103.3380    3.5062   -0.0384 C   0  0  0  0  0  0  0  0  0  0  0  0
  102.3998    2.5367   -0.0586 C   0  0  0  0  0  0  0  0  0  0  0  0
  103.1138    1.2761   -0.0155 C   0  0  0  0  0  0  0  0  0  0  0  0
  104.4450    1.4841    0.0236 N   0  0  0  0  0  0  0  0  0  0  0  0
  101.3660   -2.6302    0.1122 H   0  0  0  0  0  0  0  0  0  0  0  0
  103.2412   -4.5322    0.0160 H   0  0  0  0  0  0  0  0  0  0  0  0
  105.1434   -0.7664   -0.1332 H   0  0  0  0  0  0  0  0  0  0  0  0
  107.0776   -5.1327    1.5540 H   0  0  0  0  0  0  0  0  0  0  0  0
  107.6437   -7.1849    2.3323 H   0  0  0  0  0  0  0  0  0  0  0  0
  105.4665   -9.3544   -1.1705 H   0  0  0  0  0  0  0  0  0  0  0  0
  104.2823   -7.1364   -2.9562 H   0  0  0  0  0  0  0  0  0  0  0  0
  104.7794   -5.0519   -2.0760 H   0  0  0  0  0  0  0  0  0  0  0  0
  108.5630   -4.4903   -0.5429 H   0  0  0  0  0  0  0  0  0  0  0  0
  110.4297   -2.5553   -0.4760 H   0  0  0  0  0  0  0  0  0  0  0  0
  110.4054    2.6741    0.1909 H   0  0  0  0  0  0  0  0  0  0  0  0
  108.5305    4.5759    0.3016 H   0  0  0  0  0  0  0  0  0  0  0  0
  106.6195    0.8319   -0.0884 H   0  0  0  0  0  0  0  0  0  0  0  0
  106.9170    5.2424   -1.7077 H   0  0  0  0  0  0  0  0  0  0  0  0
  106.9138    8.7964   -1.5614 H   0  0  0  0  0  0  0  0  0  0  0  0
  105.3750    9.4177    1.1117 H   0  0  0  0  0  0  0  0  0  0  0  0
  104.2468    7.1244    2.9499 H   0  0  0  0  0  0  0  0  0  0  0  0
  104.7614    5.0554    2.0123 H   0  0  0  0  0  0  0  0  0  0  0  0
  103.1946    4.5738   -0.0802 H   0  0  0  0  0  0  0  0  0  0  0  0
  101.3275    2.6380   -0.1078 H   0  0  0  0  0  0  0  0  0  0  0  0
  1  2  4  0  0  0  0
  2  3  4  0  0  0  0
  3  4  2  0  0  0  0
  4  5  4  0  0  0  0
  2  6  4  0  0  0  0
  5  6  4  0  0  0  0
  5  7  4  0  0  0  0
  7  8  1  0  0  0  0
  8  9  4  0  0  0  0
  9 10  4  0  0  0  0
 10 11  1  0  0  0  0
 10 12  4  0  0  0  0
 12 13  1  0  0  0  0
 12 14  4  0  0  0  0
 14 15  1  0  0  0  0
  8 16  4  0  0  0  0
 14 16  4  0  0  0  0
  7 17  4  0  0  0  0
 17 18  1  0  0  0  0
 18 19  2  0  0  0  0
 17 20  4  0  0  0  0
 19 21  1  0  0  0  0
 20 21  4  0  0  0  0
 21 22  4  0  0  0  0
 22 23  4  0  0  0  0
 23 24  4  0  0  0  0
 24 25  2  0  0  0  0
 25 26  4  0  0  0  0
 23 27  4  0  0  0  0
 26 27  4  0  0  0  0
 26 28  4  0  0  0  0
 28 29  1  0  0  0  0
 29 30  4  0  0  0  0
 30 31  4  0  0  0  0
 31 32  1  0  0  0  0
 31 33  4  0  0  0  0
 33 34  1  0  0  0  0
 33 35  4  0  0  0  0
 35 36  1  0  0  0  0
 29 37  4  0  0  0  0
 35 37  4  0  0  0  0
 28 38  4  0  0  0  0
 38 39  1  0  0  0  0
 39 40  2  0  0  0  0
  1 41  4  0  0  0  0
 40 41  1  0  0  0  0
 38 42  4  0  0  0  0
 41 42  4  0  0  0  0
  1 43  1  0  0  0  0
  3 44  1  0  0  0  0
  4 45  1  0  0  0  0
  6 46  1  0  0  0  0
  9 47  1  0  0  0  0
 11 48  1  0  0  0  0
 13 49  1  0  0  0  0
 15 50  1  0  0  0  0
 16 51  1  0  0  0  0
 18 52  1  0  0  0  0
 19 53  1  0  0  0  0
 24 54  1  0  0  0  0
 25 55  1  0  0  0  0
 27 56  1  0  0  0  0
 30 57  1  0  0  0  0
 32 58  1  0  0  0  0
 34 59  1  0  0  0  0
 36 60  1  0  0  0  0
 37 61  1  0  0  0  0
 39 62  1  0  0  0  0
 40 63  1  0  0  0  0
 64 65  4  0  0  0  0
 65 66  4  0  0  0  0
 66 67  2  0  0  0  0
 67 68  4  0  0  0  0
 65 69  4  0  0  0  0
 68 69  4  0  0  0  0
 68 70  4  0  0  0  0
 70 71  1  0  0  0  0
 71 72  4  0  0  0  0
 72 73  4  0  0  0  0
 73 74  1  0  0  0  0
 73 75  4  0  0  0  0
 75 76  1  0  0  0  0
 75 77  4  0  0  0  0
 77 78  1  0  0  0  0
 71 79  4  0  0  0  0
 77 79  4  0  0  0  0
 70 80  4  0  0  0  0
 80 81  1  0  0  0  0
 81 82  2  0  0  0  0
 80 83  4  0  0  0  0
 82 84  1  0  0  0  0
 83 84  4  0  0  0  0
 84 85  4  0  0  0  0
 85 86  4  0  0  0  0
 86 87  4  0  0  0  0
 87 88  2  0  0  0  0
 88 89  4  0  0  0  0
 86 90  4  0  0  0  0
 89 90  4  0  0  0  0
 89 91  4  0  0  0  0
 91 92  1  0  0  0  0
 92 93  4  0  0  0  0
 93 94  4  0  0  0  0
 94 95  1  0  0  0  0
 94 96  4  0  0  0  0
 96 97  1  0  0  0  0
 96 98  4  0  0  0  0
 98 99  1  0  0  0  0
 92100  4  0  0  0  0
 98100  4  0  0  0  0
 91101  4  0  0  0  0
101102  1  0  0  0  0
102103  2  0  0  0  0
 64104  4  0  0  0  0
103104  1  0  0  0  0
101105  4  0  0  0  0
104105  4  0  0  0  0
 64106  1  0  0  0  0
 66107  1  0  0  0  0
 67108  1  0  0  0  0
 69109  1  0  0  0  0
 72110  1  0  0  0  0
 74111  1  0  0  0  0
 76112  1  0  0  0  0
 78113  1  0  0  0  0
 79114  1  0  0  0  0
 81115  1  0  0  0  0
 82116  1  0  0  0  0
 87117  1  0  0  0  0
 88118  1  0  0  0  0
 90119  1  0  0  0  0
 93120  1  0  0  0  0
 95121  1  0  0  0  0
 97122  1  0  0  0  0
 99123  1  0  0  0  0
100124  1  0  0  0  0
102125  1  0  0  0  0
103126  1  0  0  0  0
127128  3  0  0  0  0
128129  4  0  0  0  0
 22130  4  0  0  0  0
129130  3  0  0  0  0
127131  4  0  0  0  0
131132  3  0  0  0  0
133134  3  0  0  0  0
134135  4  0  0  0  0
135136  3  0  0  0  0
133137  4  0  0  0  0
137138  3  0  0  0  0
139140  3  0  0  0  0
140141  4  0  0  0  0
141142  3  0  0  0  0
139143  4  0  0  0  0
143144  3  0  0  0  0
145146  3  0  0  0  0
146147  4  0  0  0  0
147148  3  0  0  0  0
145149  4  0  0  0  0
 85150  4  0  0  0  0
149150  3  0  0  0  0
132151  4  0  0  0  0
151152  4  0  0  0  0
152153  4  0  0  0  0
153154  2  0  0  0  0
154155  4  0  0  0  0
152156  4  0  0  0  0
155156  4  0  0  0  0
155157  4  0  0  0  0
157158  1  0  0  0  0
158159  4  0  0  0  0
159160  4  0  0  0  0
160161  1  0  0  0  0
160162  4  0  0  0  0
162163  1  0  0  0  0
162164  4  0  0  0  0
164165  1  0  0  0  0
158166  4  0  0  0  0
164166  4  0  0  0  0
157167  4  0  0  0  0
167168  1  0  0  0  0
168169  2  0  0  0  0
167170  4  0  0  0  0
169171  1  0  0  0  0
170171  4  0  0  0  0
136172  4  0  0  0  0
171172  4  0  0  0  0
172173  4  0  0  0  0
173174  4  0  0  0  0
174175  2  0  0  0  0
175176  4  0  0  0  0
173177  4  0  0  0  0
176177  4  0  0  0  0
176178  4  0  0  0  0
178179  1  0  0  0  0
179180  4  0  0  0  0
180181  4  0  0  0  0
181182  1  0  0  0  0
181183  4  0  0  0  0
183184  1  0  0  0  0
183185  4  0  0  0  0
185186  1  0  0  0  0
179187  4  0  0  0  0
185187  4  0  0  0  0
178188  4  0  0  0  0
188189  1  0  0  0  0
189190  2  0  0  0  0
151191  4  0  0  0  0
190191  1  0  0  0  0
188192  4  0  0  0  0
191192  4  0  0  0  0
153193  1  0  0  0  0
154194  1  0  0  0  0
156195  1  0  0  0  0
159196  1  0  0  0  0
161197  1  0  0  0  0
163198  1  0  0  0  0
165199  1  0  0  0  0
166200  1  0  0  0  0
168201  1  0  0  0  0
169202  1  0  0  0  0
174203  1  0  0  0  0
175204  1  0  0  0  0
177205  1  0  0  0  0
180206  1  0  0  0  0
182207  1  0  0  0  0
184208  1  0  0  0  0
186209  1  0  0  0  0
187210  1  0  0  0  0
189211  1  0  0  0  0
190212  1  0  0  0  0
138213  4  0  0  0  0
213214  4  0  0  0  0
214215  4  0  0  0  0
215216  2  0  0  0  0
216217  4  0  0  0  0
214218  4  0  0  0  0
217218  4  0  0  0  0
217219  4  0  0  0  0
219220  1  0  0  0  0
220221  4  0  0  0  0
221222  4  0  0  0  0
222223  1  0  0  0  0
222224  4  0  0  0  0
224225  1  0  0  0  0
224226  4  0  0  0  0
226227  1  0  0  0  0
220228  4  0  0  0  0
226228  4  0  0  0  0
219229  4  0  0  0  0
229230  1  0  0  0  0
230231  2  0  0  0  0
229232  4  0  0  0  0
231233  1  0  0  0  0
232233  4  0  0  0  0
142234  4  0  0  0  0
233234  4  0  0  0  0
234235  4  0  0  0  0
235236  4  0  0  0  0
236237  2  0  0  0  0
237238  4  0  0  0  0
235239  4  0  0  0  0
238239  4  0  0  0  0
238240  4  0  0  0  0
240241  1  0  0  0  0
241242  4  0  0  0  0
242243  4  0  0  0  0
243244  1  0  0  0  0
243245  4  0  0  0  0
245246  1  0  0  0  0
245247  4  0  0  0  0
247248  1  0  0  0  0
241249  4  0  0  0  0
247249  4  0  0  0  0
240250  4  0  0  0  0
250251  1  0  0  0  0
251252  2  0  0  0  0
213253  4  0  0  0  0
252253  1  0  0  0  0
250254  4  0  0  0  0
253254  4  0  0  0  0
215255  1  0  0  0  0
216256  1  0  0  0  0
218257  1  0  0  0  0
221258  1  0  0  0  0
223259  1  0  0  0  0
225260  1  0  0  0  0
227261  1  0  0  0  0
228262  1  0  0  0  0
230263  1  0  0  0  0
231264  1  0  0  0  0
236265  1  0  0  0  0
237266  1  0  0  0  0
239267  1  0  0  0  0
242268  1  0  0  0  0
244269  1  0  0  0  0
246270  1  0  0  0  0
248271  1  0  0  0  0
249272  1  0  0  0  0
251273  1  0  0  0  0
252274  1  0  0  0  0
144275  4  0  0  0  0
275276  4  0  0  0  0
276277  4  0  0  0  0
277278  2  0  0  0  0
278279  4  0  0  0  0
276280  4  0  0  0  0
279280  4  0  0  0  0
279281  4  0  0  0  0
281282  1  0  0  0  0
282283  4  0  0  0  0
283284  4  0  0  0  0
284285  1  0  0  0  0
284286  4  0  0  0  0
286287  1  0  0  0  0
286288  4  0  0  0  0
288289  1  0  0  0  0
282290  4  0  0  0  0
288290  4  0  0  0  0
281291  4  0  0  0  0
291292  1  0  0  0  0
292293  2  0  0  0  0
291294  4  0  0  0  0
293295  1  0  0  0  0
294295  4  0  0  0  0
148296  4  0  0  0  0
295296  4  0  0  0  0
296297  4  0  0  0  0
297298  4  0  0  0  0
298299  2  0  0  0  0
299300  4  0  0  0  0
297301  4  0  0  0  0
300301  4  0  0  0  0
300302  4  0  0  0  0
302303  1  0  0  0  0
303304  4  0  0  0  0
304305  4  0  0  0  0
305306  1  0  0  0  0
305307  4  0  0  0  0
307308  1  0  0  0  0
307309  4  0  0  0  0
309310  1  0  0  0  0
303311  4  0  0  0  0
309311  4  0  0  0  0
302312  4  0  0  0  0
312313  1  0  0  0  0
313314  2  0  0  0  0
275315  4  0  0  0  0
314315  1  0  0  0  0
312316  4  0  0  0  0
315316  4  0  0  0  0
277317  1  0  0  0  0
278318  1  0  0  0  0
280319  1  0  0  0  0
283320  1  0  0  0  0
285321  1  0  0  0  0
287322  1  0  0  0  0
289323  1  0  0  0  0
290324  1  0  0  0  0
292325  1  0  0  0  0
293326  1  0  0  0  0
298327  1  0  0  0  0
299328  1  0  0  0  0
301329  1  0  0  0  0
304330  1  0  0  0  0
306331  1  0  0  0  0
308332  1  0  0  0  0
310333  1  0  0  0  0
311334  1  0  0  0  0
313335  1  0  0  0  0
314336  1  0  0  0  0
M  END
