 xtb: 6.5.1 (b24c23e)
          07292223093D

140159  0     0  0            999 V2000
   15.0822    0.0375   -0.0327 Co  0  0  0  0  0  0  0  0  0  0  0  0
   11.7180    0.1271   -0.1204 C   0  0  0  0  0  0  0  0  0  0  0  0
   12.3656    0.8136    0.8852 C   0  0  0  0  0  0  0  0  0  0  0  0
   11.6999    1.5421    1.9212 C   0  0  0  0  0  0  0  0  0  0  0  0
   12.6548    2.2440    2.5778 C   0  0  0  0  0  0  0  0  0  0  0  0
   13.9009    1.9564    1.9303 C   0  0  0  0  0  0  0  0  0  0  0  0
   13.7218    1.0180    0.9463 N   0  0  0  0  0  0  0  0  0  0  0  0
   15.0911    2.6325    2.1770 C   0  0  0  0  0  0  0  0  0  0  0  0
   15.1032    3.7646    3.1252 C   0  0  0  0  0  0  0  0  0  0  0  0
   14.2400    4.8522    2.9589 C   0  0  0  0  0  0  0  0  0  0  0  0
   14.2654    5.9163    3.8396 C   0  0  0  0  0  0  0  0  0  0  0  0
   15.1494    5.9212    4.9264 C   0  0  0  0  0  0  0  0  0  0  0  0
   15.1746    7.0337    5.7512 N   0  0  0  0  0  0  0  0  0  0  0  0
   15.7128    6.9272    7.1003 C   0  0  0  0  0  0  0  0  0  0  0  0
   16.0162    4.8372    5.0969 C   0  0  0  0  0  0  0  0  0  0  0  0
   15.9893    3.7794    4.2053 C   0  0  0  0  0  0  0  0  0  0  0  0
   16.2737    2.2689    1.5455 C   0  0  0  0  0  0  0  0  0  0  0  0
   17.5159    2.9663    1.6876 C   0  0  0  0  0  0  0  0  0  0  0  0
   18.4664    2.1979    1.1004 C   0  0  0  0  0  0  0  0  0  0  0  0
   16.4534    1.1219    0.8072 N   0  0  0  0  0  0  0  0  0  0  0  0
   17.8002    1.0427    0.5907 C   0  0  0  0  0  0  0  0  0  0  0  0
   18.4638   -0.0804    0.0874 C   0  0  0  0  0  0  0  0  0  0  0  0
   17.7666   -1.1648   -0.4531 C   0  0  0  0  0  0  0  0  0  0  0  0
   18.3948   -2.3559   -0.9281 C   0  0  0  0  0  0  0  0  0  0  0  0
   17.4360   -3.0732   -1.5638 C   0  0  0  0  0  0  0  0  0  0  0  0
   16.2281   -2.3079   -1.4878 C   0  0  0  0  0  0  0  0  0  0  0  0
   16.4295   -1.1736   -0.7345 N   0  0  0  0  0  0  0  0  0  0  0  0
   15.0651   -2.6049   -2.1855 C   0  0  0  0  0  0  0  0  0  0  0  0
   15.0592   -3.7443   -3.1256 C   0  0  0  0  0  0  0  0  0  0  0  0
   15.9909   -3.8201   -4.1636 C   0  0  0  0  0  0  0  0  0  0  0  0
   15.9927   -4.8838   -5.0490 C   0  0  0  0  0  0  0  0  0  0  0  0
   15.0550   -5.9121   -4.9130 C   0  0  0  0  0  0  0  0  0  0  0  0
   15.0480   -7.0288   -5.7330 N   0  0  0  0  0  0  0  0  0  0  0  0
   15.6354   -6.9564   -7.0638 C   0  0  0  0  0  0  0  0  0  0  0  0
   14.1260   -5.8472   -3.8665 C   0  0  0  0  0  0  0  0  0  0  0  0
   14.1251   -4.7766   -2.9934 C   0  0  0  0  0  0  0  0  0  0  0  0
   13.9067   -1.8528   -2.0179 C   0  0  0  0  0  0  0  0  0  0  0  0
   12.6912   -2.0617   -2.7480 C   0  0  0  0  0  0  0  0  0  0  0  0
   11.7428   -1.2929   -2.1599 C   0  0  0  0  0  0  0  0  0  0  0  0
   12.3836   -0.6043   -1.0819 C   0  0  0  0  0  0  0  0  0  0  0  0
   13.7225   -0.9050   -1.0451 N   0  0  0  0  0  0  0  0  0  0  0  0
   10.6355    0.1633   -0.1562 H   0  0  0  0  0  0  0  0  0  0  0  0
   10.6373    1.5131    2.1033 H   0  0  0  0  0  0  0  0  0  0  0  0
   12.5376    2.9010    3.4243 H   0  0  0  0  0  0  0  0  0  0  0  0
   13.5612    4.8719    2.1133 H   0  0  0  0  0  0  0  0  0  0  0  0
   13.6001    6.7603    3.6902 H   0  0  0  0  0  0  0  0  0  0  0  0
   14.3189    7.5739    5.7141 H   0  0  0  0  0  0  0  0  0  0  0  0
   16.7908    6.7642    7.0606 H   0  0  0  0  0  0  0  0  0  0  0  0
   15.2442    6.1081    7.6578 H   0  0  0  0  0  0  0  0  0  0  0  0
   15.5212    7.8692    7.6144 H   0  0  0  0  0  0  0  0  0  0  0  0
   16.7148    4.8138    5.9242 H   0  0  0  0  0  0  0  0  0  0  0  0
   16.6530    2.9358    4.3608 H   0  0  0  0  0  0  0  0  0  0  0  0
   17.6356    3.9221    2.1712 H   0  0  0  0  0  0  0  0  0  0  0  0
   19.5257    2.3808    1.0176 H   0  0  0  0  0  0  0  0  0  0  0  0
   19.4372   -2.5949   -0.7909 H   0  0  0  0  0  0  0  0  0  0  0  0
   17.5291   -4.0338   -2.0436 H   0  0  0  0  0  0  0  0  0  0  0  0
   16.7112   -3.0195   -4.2921 H   0  0  0  0  0  0  0  0  0  0  0  0
   16.7271   -4.9083   -5.8447 H   0  0  0  0  0  0  0  0  0  0  0  0
   14.1620   -7.5191   -5.7251 H   0  0  0  0  0  0  0  0  0  0  0  0
   15.2322   -6.1134   -7.6366 H   0  0  0  0  0  0  0  0  0  0  0  0
   15.4074   -7.8871   -7.5834 H   0  0  0  0  0  0  0  0  0  0  0  0
   16.7189   -6.8544   -6.9894 H   0  0  0  0  0  0  0  0  0  0  0  0
   13.4049   -6.6484   -3.7436 H   0  0  0  0  0  0  0  0  0  0  0  0
   13.4079   -4.7474   -2.1805 H   0  0  0  0  0  0  0  0  0  0  0  0
   12.5887   -2.7152   -3.5993 H   0  0  0  0  0  0  0  0  0  0  0  0
   10.6999   -1.1928   -2.4158 H   0  0  0  0  0  0  0  0  0  0  0  0
   33.5769   -0.0091   -0.0062 Co  0  0  0  0  0  0  0  0  0  0  0  0
   36.9382    0.0891   -0.1532 C   0  0  0  0  0  0  0  0  0  0  0  0
   36.2916   -1.0438   -0.6016 C   0  0  0  0  0  0  0  0  0  0  0  0
   36.9553   -2.2183   -1.0777 C   0  0  0  0  0  0  0  0  0  0  0  0
   35.9999   -3.0115   -1.6203 C   0  0  0  0  0  0  0  0  0  0  0  0
   34.7560   -2.3114   -1.4912 C   0  0  0  0  0  0  0  0  0  0  0  0
   34.9370   -1.1412   -0.8005 N   0  0  0  0  0  0  0  0  0  0  0  0
   33.5669   -2.6953   -2.1032 C   0  0  0  0  0  0  0  0  0  0  0  0
   33.5558   -3.8688   -2.9996 C   0  0  0  0  0  0  0  0  0  0  0  0
   34.4283   -3.9496   -4.0896 C   0  0  0  0  0  0  0  0  0  0  0  0
   34.4075   -5.0439   -4.9325 C   0  0  0  0  0  0  0  0  0  0  0  0
   33.5189   -6.1026   -4.7043 C   0  0  0  0  0  0  0  0  0  0  0  0
   33.5002   -7.1542   -5.6058 N   0  0  0  0  0  0  0  0  0  0  0  0
   32.9558   -8.4446   -5.2065 C   0  0  0  0  0  0  0  0  0  0  0  0
   32.6421   -6.0263   -3.6177 C   0  0  0  0  0  0  0  0  0  0  0  0
   32.6647   -4.9228   -2.7831 C   0  0  0  0  0  0  0  0  0  0  0  0
   32.3858   -1.9968   -1.8892 C   0  0  0  0  0  0  0  0  0  0  0  0
   31.1433   -2.2877   -2.5389 C   0  0  0  0  0  0  0  0  0  0  0  0
   30.1922   -1.5511   -1.9136 C   0  0  0  0  0  0  0  0  0  0  0  0
   32.2064   -1.0224   -0.9337 N   0  0  0  0  0  0  0  0  0  0  0  0
   30.8583   -0.8024   -0.8964 C   0  0  0  0  0  0  0  0  0  0  0  0
   30.1936   -0.0702    0.0919 C   0  0  0  0  0  0  0  0  0  0  0  0
   30.8902    0.6919    1.0347 C   0  0  0  0  0  0  0  0  0  0  0  0
   30.2639    1.4092    2.0983 C   0  0  0  0  0  0  0  0  0  0  0  0
   31.2219    2.1897    2.6568 C   0  0  0  0  0  0  0  0  0  0  0  0
   32.4275    1.9556    1.9208 C   0  0  0  0  0  0  0  0  0  0  0  0
   32.2243    0.9797    0.9724 N   0  0  0  0  0  0  0  0  0  0  0  0
   33.5899    2.7033    2.0560 C   0  0  0  0  0  0  0  0  0  0  0  0
   33.5955    3.8681    2.9643 C   0  0  0  0  0  0  0  0  0  0  0  0
   32.6587    4.8939    2.8171 C   0  0  0  0  0  0  0  0  0  0  0  0
   32.6543    5.9879    3.6647 C   0  0  0  0  0  0  0  0  0  0  0  0
   33.5946    6.0813    4.6955 C   0  0  0  0  0  0  0  0  0  0  0  0
   33.5990    7.1223    5.6095 N   0  0  0  0  0  0  0  0  0  0  0  0
   33.0029    8.4031    5.2553 C   0  0  0  0  0  0  0  0  0  0  0  0
   34.5289    5.0498    4.8549 C   0  0  0  0  0  0  0  0  0  0  0  0
   34.5321    3.9661    3.9980 C   0  0  0  0  0  0  0  0  0  0  0  0
   34.7477    2.3755    1.3583 C   0  0  0  0  0  0  0  0  0  0  0  0
   35.9642    3.1322    1.4046 C   0  0  0  0  0  0  0  0  0  0  0  0
   36.9124    2.3898    0.7839 C   0  0  0  0  0  0  0  0  0  0  0  0
   36.2713    1.1879    0.3464 C   0  0  0  0  0  0  0  0  0  0  0  0
   34.9301    1.2226    0.6388 N   0  0  0  0  0  0  0  0  0  0  0  0
   38.0209    0.1163   -0.1932 H   0  0  0  0  0  0  0  0  0  0  0  0
   38.0167   -2.3945   -1.0019 H   0  0  0  0  0  0  0  0  0  0  0  0
   36.1157   -3.9841   -2.0707 H   0  0  0  0  0  0  0  0  0  0  0  0
   35.1112   -3.1313   -4.2897 H   0  0  0  0  0  0  0  0  0  0  0  0
   35.0806   -5.0871   -5.7824 H   0  0  0  0  0  0  0  0  0  0  0  0
   34.3612   -7.2401   -6.1317 H   0  0  0  0  0  0  0  0  0  0  0  0
   31.8762   -8.3688   -5.0704 H   0  0  0  0  0  0  0  0  0  0  0  0
   33.4120   -8.8046   -4.2773 H   0  0  0  0  0  0  0  0  0  0  0  0
   33.1572   -9.1572   -6.0062 H   0  0  0  0  0  0  0  0  0  0  0  0
   31.9392   -6.8258   -3.4183 H   0  0  0  0  0  0  0  0  0  0  0  0
   31.9937   -4.8863   -1.9317 H   0  0  0  0  0  0  0  0  0  0  0  0
   31.0236   -2.9672   -3.3669 H   0  0  0  0  0  0  0  0  0  0  0  0
   29.1324   -1.5128   -2.1076 H   0  0  0  0  0  0  0  0  0  0  0  0
   29.2235    1.3210    2.3674 H   0  0  0  0  0  0  0  0  0  0  0  0
   31.1299    2.8637    3.4929 H   0  0  0  0  0  0  0  0  0  0  0  0
   31.9361    4.8432    2.0098 H   0  0  0  0  0  0  0  0  0  0  0  0
   31.9159    6.7667    3.5192 H   0  0  0  0  0  0  0  0  0  0  0  0
   34.4856    7.2248    6.0877 H   0  0  0  0  0  0  0  0  0  0  0  0
   33.4017    8.7849    4.3085 H   0  0  0  0  0  0  0  0  0  0  0  0
   33.2280    9.1112    6.0528 H   0  0  0  0  0  0  0  0  0  0  0  0
   31.9199    8.3018    5.1738 H   0  0  0  0  0  0  0  0  0  0  0  0
   35.2521    5.1059    5.6617 H   0  0  0  0  0  0  0  0  0  0  0  0
   35.2531    3.1691    4.1433 H   0  0  0  0  0  0  0  0  0  0  0  0
   36.0673    4.1053    1.8572 H   0  0  0  0  0  0  0  0  0  0  0  0
   37.9563    2.6157    0.6335 H   0  0  0  0  0  0  0  0  0  0  0  0
   19.8638   -0.1168    0.1229 C   0  0  0  0  0  0  0  0  0  0  0  0
   21.0886   -0.1382    0.1505 C   0  0  0  0  0  0  0  0  0  0  0  0
   22.4293   -0.1532    0.1728 C   0  0  0  0  0  0  0  0  0  0  0  0
   23.6607   -0.1558    0.1896 C   0  0  0  0  0  0  0  0  0  0  0  0
   24.9969   -0.1550    0.1901 C   0  0  0  0  0  0  0  0  0  0  0  0
   26.2283   -0.1433    0.1811 C   0  0  0  0  0  0  0  0  0  0  0  0
   27.5689   -0.1228    0.1626 C   0  0  0  0  0  0  0  0  0  0  0  0
   28.7936   -0.0982    0.1346 C   0  0  0  0  0  0  0  0  0  0  0  0
  2  3  4  0  0  0  0
  3  4  4  0  0  0  0
  4  5  2  0  0  0  0
  5  6  4  0  0  0  0
  1  7  1  0  0  0  0
  3  7  4  0  0  0  0
  6  7  4  0  0  0  0
  6  8  4  0  0  0  0
  8  9  1  0  0  0  0
  9 10  4  0  0  0  0
 10 11  4  0  0  0  0
 11 12  4  0  0  0  0
 12 13  1  0  0  0  0
 13 14  1  0  0  0  0
 12 15  4  0  0  0  0
  9 16  4  0  0  0  0
 15 16  4  0  0  0  0
  8 17  4  0  0  0  0
 17 18  4  0  0  0  0
 18 19  2  0  0  0  0
  1 20  1  0  0  0  0
 17 20  4  0  0  0  0
 19 21  4  0  0  0  0
 20 21  4  0  0  0  0
 21 22  4  0  0  0  0
 22 23  4  0  0  0  0
 23 24  4  0  0  0  0
 24 25  2  0  0  0  0
 25 26  4  0  0  0  0
  1 27  1  0  0  0  0
 23 27  4  0  0  0  0
 26 27  4  0  0  0  0
 26 28  4  0  0  0  0
 28 29  1  0  0  0  0
 29 30  4  0  0  0  0
 30 31  4  0  0  0  0
 31 32  4  0  0  0  0
 32 33  1  0  0  0  0
 33 34  1  0  0  0  0
 32 35  4  0  0  0  0
 29 36  4  0  0  0  0
 35 36  4  0  0  0  0
 28 37  4  0  0  0  0
 37 38  4  0  0  0  0
 38 39  2  0  0  0  0
  2 40  4  0  0  0  0
 39 40  4  0  0  0  0
  1 41  1  0  0  0  0
 37 41  4  0  0  0  0
 40 41  4  0  0  0  0
  2 42  1  0  0  0  0
  4 43  1  0  0  0  0
  5 44  1  0  0  0  0
 10 45  1  0  0  0  0
 11 46  1  0  0  0  0
 13 47  1  0  0  0  0
 14 48  1  0  0  0  0
 14 49  1  0  0  0  0
 14 50  1  0  0  0  0
 15 51  1  0  0  0  0
 16 52  1  0  0  0  0
 18 53  1  0  0  0  0
 19 54  1  0  0  0  0
 24 55  1  0  0  0  0
 25 56  1  0  0  0  0
 30 57  1  0  0  0  0
 31 58  1  0  0  0  0
 33 59  1  0  0  0  0
 34 60  1  0  0  0  0
 34 61  1  0  0  0  0
 34 62  1  0  0  0  0
 35 63  1  0  0  0  0
 36 64  1  0  0  0  0
 38 65  1  0  0  0  0
 39 66  1  0  0  0  0
 68 69  4  0  0  0  0
 69 70  4  0  0  0  0
 70 71  2  0  0  0  0
 71 72  4  0  0  0  0
 67 73  1  0  0  0  0
 69 73  4  0  0  0  0
 72 73  4  0  0  0  0
 72 74  4  0  0  0  0
 74 75  1  0  0  0  0
 75 76  4  0  0  0  0
 76 77  4  0  0  0  0
 77 78  4  0  0  0  0
 78 79  1  0  0  0  0
 79 80  1  0  0  0  0
 78 81  4  0  0  0  0
 75 82  4  0  0  0  0
 81 82  4  0  0  0  0
 74 83  4  0  0  0  0
 83 84  4  0  0  0  0
 84 85  2  0  0  0  0
 67 86  1  0  0  0  0
 83 86  4  0  0  0  0
 85 87  4  0  0  0  0
 86 87  4  0  0  0  0
 87 88  4  0  0  0  0
 88 89  4  0  0  0  0
 89 90  4  0  0  0  0
 90 91  2  0  0  0  0
 91 92  4  0  0  0  0
 67 93  1  0  0  0  0
 89 93  4  0  0  0  0
 92 93  4  0  0  0  0
 92 94  4  0  0  0  0
 94 95  1  0  0  0  0
 95 96  4  0  0  0  0
 96 97  4  0  0  0  0
 97 98  4  0  0  0  0
 98 99  1  0  0  0  0
 99100  1  0  0  0  0
 98101  4  0  0  0  0
 95102  4  0  0  0  0
101102  4  0  0  0  0
 94103  4  0  0  0  0
103104  4  0  0  0  0
104105  2  0  0  0  0
 68106  4  0  0  0  0
105106  4  0  0  0  0
 67107  1  0  0  0  0
103107  4  0  0  0  0
106107  4  0  0  0  0
 68108  1  0  0  0  0
 70109  1  0  0  0  0
 71110  1  0  0  0  0
 76111  1  0  0  0  0
 77112  1  0  0  0  0
 79113  1  0  0  0  0
 80114  1  0  0  0  0
 80115  1  0  0  0  0
 80116  1  0  0  0  0
 81117  1  0  0  0  0
 82118  1  0  0  0  0
 84119  1  0  0  0  0
 85120  1  0  0  0  0
 90121  1  0  0  0  0
 91122  1  0  0  0  0
 96123  1  0  0  0  0
 97124  1  0  0  0  0
 99125  1  0  0  0  0
100126  1  0  0  0  0
100127  1  0  0  0  0
100128  1  0  0  0  0
101129  1  0  0  0  0
102130  1  0  0  0  0
104131  1  0  0  0  0
105132  1  0  0  0  0
 22133  4  0  0  0  0
133134  3  0  0  0  0
134135  4  0  0  0  0
135136  3  0  0  0  0
136137  4  0  0  0  0
137138  3  0  0  0  0
138139  4  0  0  0  0
 88140  4  0  0  0  0
139140  3  0  0  0  0
M  END
