 xtb: 6.5.1 (b24c23e)
          07292221413D

193222  0     0  0            999 V2000
   33.3112    0.0160   -0.0435 Fe  0  0  0  0  0  0  0  0  0  0  0  0
   29.9204    0.0546   -0.1457 C   0  0  0  0  0  0  0  0  0  0  0  0
   30.5764    1.2677   -0.1376 C   0  0  0  0  0  0  0  0  0  0  0  0
   29.8983    2.5286   -0.1479 C   0  0  0  0  0  0  0  0  0  0  0  0
   30.8557    3.4832   -0.0877 C   0  0  0  0  0  0  0  0  0  0  0  0
   32.1185    2.8030   -0.0523 C   0  0  0  0  0  0  0  0  0  0  0  0
   31.9337    1.4472   -0.0806 N   0  0  0  0  0  0  0  0  0  0  0  0
   33.3439    3.4532    0.0518 C   0  0  0  0  0  0  0  0  0  0  0  0
   33.3566    4.9364    0.0948 C   0  0  0  0  0  0  0  0  0  0  0  0
   32.9015    5.6723   -0.9992 C   0  0  0  0  0  0  0  0  0  0  0  0
   32.9180    7.0617   -0.9594 C   0  0  0  0  0  0  0  0  0  0  0  0
   32.4854    7.7871   -2.0191 O   0  0  0  0  0  0  0  0  0  0  0  0
   33.3834    7.7192    0.1807 C   0  0  0  0  0  0  0  0  0  0  0  0
   33.3847    9.0891    0.1925 O   0  0  0  0  0  0  0  0  0  0  0  0
   33.8338    6.9835    1.2741 C   0  0  0  0  0  0  0  0  0  0  0  0
   34.2720    7.6987    2.3574 O   0  0  0  0  0  0  0  0  0  0  0  0
   33.8261    5.5947    1.2345 C   0  0  0  0  0  0  0  0  0  0  0  0
   34.5541    2.7780    0.1181 C   0  0  0  0  0  0  0  0  0  0  0  0
   35.8272    3.4322    0.1870 C   0  0  0  0  0  0  0  0  0  0  0  0
   36.7679    2.4579    0.1928 C   0  0  0  0  0  0  0  0  0  0  0  0
   34.7211    1.4135    0.0741 N   0  0  0  0  0  0  0  0  0  0  0  0
   36.0682    1.2140    0.1170 C   0  0  0  0  0  0  0  0  0  0  0  0
   36.7228   -0.0225    0.0509 C   0  0  0  0  0  0  0  0  0  0  0  0
   36.0448   -1.2440   -0.0447 C   0  0  0  0  0  0  0  0  0  0  0  0
   36.7194   -2.5011   -0.1351 C   0  0  0  0  0  0  0  0  0  0  0  0
   35.7581   -3.4536   -0.1840 C   0  0  0  0  0  0  0  0  0  0  0  0
   34.4984   -2.7739   -0.1140 C   0  0  0  0  0  0  0  0  0  0  0  0
   34.6929   -1.4139   -0.0481 N   0  0  0  0  0  0  0  0  0  0  0  0
   33.2718   -3.4216   -0.1250 C   0  0  0  0  0  0  0  0  0  0  0  0
   33.2528   -4.9045   -0.1660 C   0  0  0  0  0  0  0  0  0  0  0  0
   33.7989   -5.6421    0.8844 C   0  0  0  0  0  0  0  0  0  0  0  0
   33.7755   -7.0314    0.8457 C   0  0  0  0  0  0  0  0  0  0  0  0
   34.2953   -7.7587    1.8643 O   0  0  0  0  0  0  0  0  0  0  0  0
   33.2132   -7.6872   -0.2508 C   0  0  0  0  0  0  0  0  0  0  0  0
   33.2083   -9.0573   -0.2636 O   0  0  0  0  0  0  0  0  0  0  0  0
   32.6727   -6.9499   -1.3014 C   0  0  0  0  0  0  0  0  0  0  0  0
   32.1433   -7.6634   -2.3446 O   0  0  0  0  0  0  0  0  0  0  0  0
   32.6856   -5.5613   -1.2614 C   0  0  0  0  0  0  0  0  0  0  0  0
   32.0574   -2.7429   -0.1053 C   0  0  0  0  0  0  0  0  0  0  0  0
   30.7796   -3.3945   -0.0780 C   0  0  0  0  0  0  0  0  0  0  0  0
   29.8419   -2.4183   -0.0915 C   0  0  0  0  0  0  0  0  0  0  0  0
   30.5479   -1.1733   -0.1139 C   0  0  0  0  0  0  0  0  0  0  0  0
   31.9019   -1.3833   -0.1064 N   0  0  0  0  0  0  0  0  0  0  0  0
   28.8364    0.0671   -0.1716 H   0  0  0  0  0  0  0  0  0  0  0  0
   28.8270    2.6468   -0.1862 H   0  0  0  0  0  0  0  0  0  0  0  0
   30.7298    4.5532   -0.0583 H   0  0  0  0  0  0  0  0  0  0  0  0
   32.5515    5.1723   -1.8930 H   0  0  0  0  0  0  0  0  0  0  0  0
   32.5748    8.7296   -1.8010 H   0  0  0  0  0  0  0  0  0  0  0  0
   33.7353    9.3805    1.0493 H   0  0  0  0  0  0  0  0  0  0  0  0
   34.5643    7.1083    3.0642 H   0  0  0  0  0  0  0  0  0  0  0  0
   34.1657    5.0280    2.0934 H   0  0  0  0  0  0  0  0  0  0  0  0
   35.9741    4.4996    0.2117 H   0  0  0  0  0  0  0  0  0  0  0  0
   37.8406    2.5578    0.2334 H   0  0  0  0  0  0  0  0  0  0  0  0
   37.7903   -2.6224   -0.1607 H   0  0  0  0  0  0  0  0  0  0  0  0
   35.8808   -4.5209   -0.2684 H   0  0  0  0  0  0  0  0  0  0  0  0
   34.2259   -5.1433    1.7448 H   0  0  0  0  0  0  0  0  0  0  0  0
   34.1830   -8.7007    1.6552 H   0  0  0  0  0  0  0  0  0  0  0  0
   32.7828   -9.3468   -1.0864 H   0  0  0  0  0  0  0  0  0  0  0  0
   31.7986   -7.0715   -3.0260 H   0  0  0  0  0  0  0  0  0  0  0  0
   32.2744   -4.9934   -2.0877 H   0  0  0  0  0  0  0  0  0  0  0  0
   30.6312   -4.4616   -0.0433 H   0  0  0  0  0  0  0  0  0  0  0  0
   28.7676   -2.5125   -0.0808 H   0  0  0  0  0  0  0  0  0  0  0  0
   60.1397   -0.0524   -0.0013 Fe  0  0  0  0  0  0  0  0  0  0  0  0
   63.5303   -0.0830   -0.1072 C   0  0  0  0  0  0  0  0  0  0  0  0
   62.8730   -1.2883   -0.2390 C   0  0  0  0  0  0  0  0  0  0  0  0
   63.5493   -2.5400   -0.3985 C   0  0  0  0  0  0  0  0  0  0  0  0
   62.5903   -3.4930   -0.4587 C   0  0  0  0  0  0  0  0  0  0  0  0
   61.3285   -2.8199   -0.3443 C   0  0  0  0  0  0  0  0  0  0  0  0
   61.5153   -1.4710   -0.2079 N   0  0  0  0  0  0  0  0  0  0  0  0
   60.1021   -3.4763   -0.3198 C   0  0  0  0  0  0  0  0  0  0  0  0
   60.0879   -4.9537   -0.4590 C   0  0  0  0  0  0  0  0  0  0  0  0
   60.5363   -5.5496   -1.6377 C   0  0  0  0  0  0  0  0  0  0  0  0
   60.5183   -6.9334   -1.7689 C   0  0  0  0  0  0  0  0  0  0  0  0
   60.9440   -7.5232   -2.9122 O   0  0  0  0  0  0  0  0  0  0  0  0
   60.0589   -7.7258   -0.7154 C   0  0  0  0  0  0  0  0  0  0  0  0
   60.0568   -9.0869   -0.8717 O   0  0  0  0  0  0  0  0  0  0  0  0
   59.6157   -7.1299    0.4626 C   0  0  0  0  0  0  0  0  0  0  0  0
   59.1838   -7.9726    1.4529 O   0  0  0  0  0  0  0  0  0  0  0  0
   59.6242   -5.7468    0.5938 C   0  0  0  0  0  0  0  0  0  0  0  0
   58.8934   -2.8131   -0.1663 C   0  0  0  0  0  0  0  0  0  0  0  0
   57.6196   -3.4697   -0.1686 C   0  0  0  0  0  0  0  0  0  0  0  0
   56.6808   -2.5027   -0.0348 C   0  0  0  0  0  0  0  0  0  0  0  0
   58.7286   -1.4533   -0.0411 N   0  0  0  0  0  0  0  0  0  0  0  0
   57.3824   -1.2594    0.0366 C   0  0  0  0  0  0  0  0  0  0  0  0
   56.7292   -0.0236    0.1259 C   0  0  0  0  0  0  0  0  0  0  0  0
   57.4078    1.2007    0.1680 C   0  0  0  0  0  0  0  0  0  0  0  0
   56.7338    2.4598    0.2291 C   0  0  0  0  0  0  0  0  0  0  0  0
   57.6957    3.4120    0.2742 C   0  0  0  0  0  0  0  0  0  0  0  0
   58.9552    2.7287    0.2510 C   0  0  0  0  0  0  0  0  0  0  0  0
   58.7597    1.3698    0.1675 N   0  0  0  0  0  0  0  0  0  0  0  0
   60.1823    3.3734    0.2961 C   0  0  0  0  0  0  0  0  0  0  0  0
   60.2032    4.8523    0.4145 C   0  0  0  0  0  0  0  0  0  0  0  0
   59.6776    5.4725    1.5479 C   0  0  0  0  0  0  0  0  0  0  0  0
   59.7026    6.8579    1.6583 C   0  0  0  0  0  0  0  0  0  0  0  0
   59.2034    7.4711    2.7588 O   0  0  0  0  0  0  0  0  0  0  0  0
   60.2450    7.6279    0.6279 C   0  0  0  0  0  0  0  0  0  0  0  0
   60.2515    8.9911    0.7623 O   0  0  0  0  0  0  0  0  0  0  0  0
   60.7646    7.0079   -0.5058 C   0  0  0  0  0  0  0  0  0  0  0  0
   61.2747    7.8295   -1.4762 O   0  0  0  0  0  0  0  0  0  0  0  0
   60.7513    5.6229   -0.6143 C   0  0  0  0  0  0  0  0  0  0  0  0
   61.3960    2.6960    0.2330 C   0  0  0  0  0  0  0  0  0  0  0  0
   62.6743    3.3405    0.3248 C   0  0  0  0  0  0  0  0  0  0  0  0
   63.6112    2.3701    0.2096 C   0  0  0  0  0  0  0  0  0  0  0  0
   62.9040    1.1349    0.0575 C   0  0  0  0  0  0  0  0  0  0  0  0
   61.5502    1.3442    0.0881 N   0  0  0  0  0  0  0  0  0  0  0  0
   64.6143   -0.0938   -0.1323 H   0  0  0  0  0  0  0  0  0  0  0  0
   64.6205   -2.6546   -0.4475 H   0  0  0  0  0  0  0  0  0  0  0  0
   62.7142   -4.5589   -0.5597 H   0  0  0  0  0  0  0  0  0  0  0  0
   60.8821   -4.9437   -2.4651 H   0  0  0  0  0  0  0  0  0  0  0  0
   60.8529   -8.4852   -2.8119 H   0  0  0  0  0  0  0  0  0  0  0  0
   59.7105   -9.4810   -0.0553 H   0  0  0  0  0  0  0  0  0  0  0  0
   58.8960   -7.4731    2.2283 H   0  0  0  0  0  0  0  0  0  0  0  0
   59.2899   -5.2898    1.5177 H   0  0  0  0  0  0  0  0  0  0  0  0
   57.4711   -4.5319   -0.2743 H   0  0  0  0  0  0  0  0  0  0  0  0
   55.6083   -2.6058    0.0021 H   0  0  0  0  0  0  0  0  0  0  0  0
   55.6629    2.5833    0.2314 H   0  0  0  0  0  0  0  0  0  0  0  0
   57.5736    4.4820    0.3119 H   0  0  0  0  0  0  0  0  0  0  0  0
   59.2656    4.8839    2.3574 H   0  0  0  0  0  0  0  0  0  0  0  0
   59.3109    8.4304    2.6493 H   0  0  0  0  0  0  0  0  0  0  0  0
   60.6580    9.3685   -0.0340 H   0  0  0  0  0  0  0  0  0  0  0  0
   61.6034    7.3148   -2.2249 H   0  0  0  0  0  0  0  0  0  0  0  0
   61.1468    5.1469   -1.5039 H   0  0  0  0  0  0  0  0  0  0  0  0
   62.8232    4.3983    0.4692 H   0  0  0  0  0  0  0  0  0  0  0  0
   64.6856    2.4618    0.2287 H   0  0  0  0  0  0  0  0  0  0  0  0
   39.3473   -0.0389    0.0813 C   0  0  0  0  0  0  0  0  0  0  0  0
   38.1229   -0.0353    0.0706 C   0  0  0  0  0  0  0  0  0  0  0  0
   40.6926   -0.0416    0.0853 C   0  0  0  0  0  0  0  0  0  0  0  0
   41.9172   -0.0384    0.0821 C   0  0  0  0  0  0  0  0  0  0  0  0
   52.7602    0.0002    0.1712 C   0  0  0  0  0  0  0  0  0  0  0  0
   51.5356    0.0001    0.1591 C   0  0  0  0  0  0  0  0  0  0  0  0
   54.1053   -0.0050    0.1703 C   0  0  0  0  0  0  0  0  0  0  0  0
   55.3296   -0.0120    0.1559 C   0  0  0  0  0  0  0  0  0  0  0  0
   46.7272   -0.0125    0.0447 Fe  0  0  0  0  0  0  0  0  0  0  0  0
   43.3160   -0.0310    0.0670 C   0  0  0  0  0  0  0  0  0  0  0  0
   43.9835    1.1770    0.3130 C   0  0  0  0  0  0  0  0  0  0  0  0
   43.3085    2.3998    0.6111 C   0  0  0  0  0  0  0  0  0  0  0  0
   44.2570    3.3687    0.6382 C   0  0  0  0  0  0  0  0  0  0  0  0
   45.5062    2.7308    0.3514 C   0  0  0  0  0  0  0  0  0  0  0  0
   45.3263    1.3784    0.1969 N   0  0  0  0  0  0  0  0  0  0  0  0
   46.7118    3.4084    0.2024 C   0  0  0  0  0  0  0  0  0  0  0  0
   46.6988    4.8881    0.2555 C   0  0  0  0  0  0  0  0  0  0  0  0
   47.4385    5.5675    1.2246 C   0  0  0  0  0  0  0  0  0  0  0  0
   47.4282    6.9579    1.2888 C   0  0  0  0  0  0  0  0  0  0  0  0
   48.1317    7.6308    2.2355 O   0  0  0  0  0  0  0  0  0  0  0  0
   46.6791    7.6897    0.3608 C   0  0  0  0  0  0  0  0  0  0  0  0
   46.6555    9.0463    0.3920 O   0  0  0  0  0  0  0  0  0  0  0  0
   45.9457    7.0019   -0.6104 C   0  0  0  0  0  0  0  0  0  0  0  0
   45.2389    7.7787   -1.4910 O   0  0  0  0  0  0  0  0  0  0  0  0
   45.9422    5.6156   -0.6658 C   0  0  0  0  0  0  0  0  0  0  0  0
   47.9266    2.7586    0.0173 C   0  0  0  0  0  0  0  0  0  0  0  0
   49.1785    3.4295   -0.1646 C   0  0  0  0  0  0  0  0  0  0  0  0
   50.1381    2.4715   -0.1657 C   0  0  0  0  0  0  0  0  0  0  0  0
   48.1177    1.3987    0.0648 N   0  0  0  0  0  0  0  0  0  0  0  0
   49.4664    1.2214   -0.0049 C   0  0  0  0  0  0  0  0  0  0  0  0
   50.1374   -0.0026    0.1274 C   0  0  0  0  0  0  0  0  0  0  0  0
   49.4670   -1.2314    0.1999 C   0  0  0  0  0  0  0  0  0  0  0  0
   50.1384   -2.4847    0.3399 C   0  0  0  0  0  0  0  0  0  0  0  0
   49.1910   -3.4467    0.2192 C   0  0  0  0  0  0  0  0  0  0  0  0
   47.9457   -2.7738    0.0022 C   0  0  0  0  0  0  0  0  0  0  0  0
   48.1264   -1.4131    0.0366 N   0  0  0  0  0  0  0  0  0  0  0  0
   46.7446   -3.4221   -0.2607 C   0  0  0  0  0  0  0  0  0  0  0  0
   46.7573   -4.8975   -0.4060 C   0  0  0  0  0  0  0  0  0  0  0  0
   47.5162   -5.4892   -1.4166 C   0  0  0  0  0  0  0  0  0  0  0  0
   47.5171   -6.8712   -1.5637 C   0  0  0  0  0  0  0  0  0  0  0  0
   48.2331   -7.4575   -2.5512 O   0  0  0  0  0  0  0  0  0  0  0  0
   46.7671   -7.6629   -0.6911 C   0  0  0  0  0  0  0  0  0  0  0  0
   46.8004   -9.0376   -0.8693 O   0  0  0  0  0  0  0  0  0  0  0  0
   46.0422   -7.0752    0.3440 C   0  0  0  0  0  0  0  0  0  0  0  0
   45.3381   -7.8466    1.2210 O   0  0  0  0  0  0  0  0  0  0  0  0
   46.0206   -5.6911    0.4740 C   0  0  0  0  0  0  0  0  0  0  0  0
   45.5328   -2.7524   -0.3796 C   0  0  0  0  0  0  0  0  0  0  0  0
   44.2848   -3.3933   -0.6668 C   0  0  0  0  0  0  0  0  0  0  0  0
   43.3237   -2.4439   -0.5542 C   0  0  0  0  0  0  0  0  0  0  0  0
   43.9909   -1.2261   -0.2186 C   0  0  0  0  0  0  0  0  0  0  0  0
   45.3389   -1.4111   -0.1538 N   0  0  0  0  0  0  0  0  0  0  0  0
   42.2465    2.4921    0.7726 H   0  0  0  0  0  0  0  0  0  0  0  0
   44.1305    4.4195    0.8418 H   0  0  0  0  0  0  0  0  0  0  0  0
   48.0114    5.0097    1.9568 H   0  0  0  0  0  0  0  0  0  0  0  0
   48.6074    7.0227    2.8164 H   0  0  0  0  0  0  0  0  0  0  0  0
   46.0846    9.3574   -0.3291 H   0  0  0  0  0  0  0  0  0  0  0  0
   44.7642    7.2314   -2.1301 H   0  0  0  0  0  0  0  0  0  0  0  0
   45.3752    5.1054   -1.4355 H   0  0  0  0  0  0  0  0  0  0  0  0
   49.3002    4.4942   -0.2792 H   0  0  0  0  0  0  0  0  0  0  0  0
   51.2050    2.5870   -0.2686 H   0  0  0  0  0  0  0  0  0  0  0  0
   51.1979   -2.5990    0.5032 H   0  0  0  0  0  0  0  0  0  0  0  0
   49.3149   -4.5158    0.2761 H   0  0  0  0  0  0  0  0  0  0  0  0
   48.0849   -4.8818   -2.1087 H   0  0  0  0  0  0  0  0  0  0  0  0
   48.1088   -8.4196   -2.4899 H   0  0  0  0  0  0  0  0  0  0  0  0
   45.9211   -9.4201   -0.7510 H   0  0  0  0  0  0  0  0  0  0  0  0
   45.6534   -8.7610    1.1936 H   0  0  0  0  0  0  0  0  0  0  0  0
   45.4541   -5.2448    1.2809 H   0  0  0  0  0  0  0  0  0  0  0  0
   44.1674   -4.4342   -0.9201 H   0  0  0  0  0  0  0  0  0  0  0  0
   42.2585   -2.5446   -0.6857 H   0  0  0  0  0  0  0  0  0  0  0  0
  2  3  4  0  0  0  0
  3  4  4  0  0  0  0
  4  5  2  0  0  0  0
  5  6  4  0  0  0  0
  1  7  1  0  0  0  0
  3  7  4  0  0  0  0
  6  7  4  0  0  0  0
  6  8  4  0  0  0  0
  8  9  1  0  0  0  0
  9 10  4  0  0  0  0
 10 11  4  0  0  0  0
 11 12  1  0  0  0  0
 11 13  4  0  0  0  0
 13 14  1  0  0  0  0
 13 15  4  0  0  0  0
 15 16  1  0  0  0  0
  9 17  4  0  0  0  0
 15 17  4  0  0  0  0
  8 18  4  0  0  0  0
 18 19  4  0  0  0  0
 19 20  2  0  0  0  0
  1 21  1  0  0  0  0
 18 21  4  0  0  0  0
 20 22  4  0  0  0  0
 21 22  4  0  0  0  0
 22 23  4  0  0  0  0
 23 24  4  0  0  0  0
 24 25  4  0  0  0  0
 25 26  2  0  0  0  0
 26 27  4  0  0  0  0
  1 28  1  0  0  0  0
 24 28  4  0  0  0  0
 27 28  4  0  0  0  0
 27 29  4  0  0  0  0
 29 30  1  0  0  0  0
 30 31  4  0  0  0  0
 31 32  4  0  0  0  0
 32 33  1  0  0  0  0
 32 34  4  0  0  0  0
 34 35  1  0  0  0  0
 34 36  4  0  0  0  0
 36 37  1  0  0  0  0
 30 38  4  0  0  0  0
 36 38  4  0  0  0  0
 29 39  4  0  0  0  0
 39 40  4  0  0  0  0
 40 41  2  0  0  0  0
  2 42  4  0  0  0  0
 41 42  4  0  0  0  0
  1 43  1  0  0  0  0
 39 43  4  0  0  0  0
 42 43  4  0  0  0  0
  2 44  1  0  0  0  0
  4 45  1  0  0  0  0
  5 46  1  0  0  0  0
 10 47  1  0  0  0  0
 12 48  1  0  0  0  0
 14 49  1  0  0  0  0
 16 50  1  0  0  0  0
 17 51  1  0  0  0  0
 19 52  1  0  0  0  0
 20 53  1  0  0  0  0
 25 54  1  0  0  0  0
 26 55  1  0  0  0  0
 31 56  1  0  0  0  0
 33 57  1  0  0  0  0
 35 58  1  0  0  0  0
 37 59  1  0  0  0  0
 38 60  1  0  0  0  0
 40 61  1  0  0  0  0
 41 62  1  0  0  0  0
 64 65  4  0  0  0  0
 65 66  4  0  0  0  0
 66 67  2  0  0  0  0
 67 68  4  0  0  0  0
 63 69  1  0  0  0  0
 65 69  4  0  0  0  0
 68 69  4  0  0  0  0
 68 70  4  0  0  0  0
 70 71  1  0  0  0  0
 71 72  4  0  0  0  0
 72 73  4  0  0  0  0
 73 74  1  0  0  0  0
 73 75  4  0  0  0  0
 75 76  1  0  0  0  0
 75 77  4  0  0  0  0
 77 78  1  0  0  0  0
 71 79  4  0  0  0  0
 77 79  4  0  0  0  0
 70 80  4  0  0  0  0
 80 81  4  0  0  0  0
 81 82  2  0  0  0  0
 63 83  1  0  0  0  0
 80 83  4  0  0  0  0
 82 84  4  0  0  0  0
 83 84  4  0  0  0  0
 84 85  4  0  0  0  0
 85 86  4  0  0  0  0
 86 87  4  0  0  0  0
 87 88  2  0  0  0  0
 88 89  4  0  0  0  0
 63 90  1  0  0  0  0
 86 90  4  0  0  0  0
 89 90  4  0  0  0  0
 89 91  4  0  0  0  0
 91 92  1  0  0  0  0
 92 93  4  0  0  0  0
 93 94  4  0  0  0  0
 94 95  1  0  0  0  0
 94 96  4  0  0  0  0
 96 97  1  0  0  0  0
 96 98  4  0  0  0  0
 98 99  1  0  0  0  0
 92100  4  0  0  0  0
 98100  4  0  0  0  0
 91101  4  0  0  0  0
101102  4  0  0  0  0
102103  2  0  0  0  0
 64104  4  0  0  0  0
103104  4  0  0  0  0
 63105  1  0  0  0  0
101105  4  0  0  0  0
104105  4  0  0  0  0
 64106  1  0  0  0  0
 66107  1  0  0  0  0
 67108  1  0  0  0  0
 72109  1  0  0  0  0
 74110  1  0  0  0  0
 76111  1  0  0  0  0
 78112  1  0  0  0  0
 79113  1  0  0  0  0
 81114  1  0  0  0  0
 82115  1  0  0  0  0
 87116  1  0  0  0  0
 88117  1  0  0  0  0
 93118  1  0  0  0  0
 95119  1  0  0  0  0
 97120  1  0  0  0  0
 99121  1  0  0  0  0
100122  1  0  0  0  0
102123  1  0  0  0  0
103124  1  0  0  0  0
 23126  4  0  0  0  0
125126  3  0  0  0  0
125127  4  0  0  0  0
127128  3  0  0  0  0
129130  3  0  0  0  0
129131  4  0  0  0  0
 85132  4  0  0  0  0
131132  3  0  0  0  0
128134  4  0  0  0  0
134135  4  0  0  0  0
135136  4  0  0  0  0
136137  2  0  0  0  0
137138  4  0  0  0  0
133139  1  0  0  0  0
135139  4  0  0  0  0
138139  4  0  0  0  0
138140  4  0  0  0  0
140141  1  0  0  0  0
141142  4  0  0  0  0
142143  4  0  0  0  0
143144  1  0  0  0  0
143145  4  0  0  0  0
145146  1  0  0  0  0
145147  4  0  0  0  0
147148  1  0  0  0  0
141149  4  0  0  0  0
147149  4  0  0  0  0
140150  4  0  0  0  0
150151  4  0  0  0  0
151152  2  0  0  0  0
133153  1  0  0  0  0
150153  4  0  0  0  0
152154  4  0  0  0  0
153154  4  0  0  0  0
130155  4  0  0  0  0
154155  4  0  0  0  0
155156  4  0  0  0  0
156157  4  0  0  0  0
157158  2  0  0  0  0
158159  4  0  0  0  0
133160  1  0  0  0  0
156160  4  0  0  0  0
159160  4  0  0  0  0
159161  4  0  0  0  0
161162  1  0  0  0  0
162163  4  0  0  0  0
163164  4  0  0  0  0
164165  1  0  0  0  0
164166  4  0  0  0  0
166167  1  0  0  0  0
166168  4  0  0  0  0
168169  1  0  0  0  0
162170  4  0  0  0  0
168170  4  0  0  0  0
161171  4  0  0  0  0
171172  4  0  0  0  0
172173  2  0  0  0  0
134174  4  0  0  0  0
173174  4  0  0  0  0
133175  1  0  0  0  0
171175  4  0  0  0  0
174175  4  0  0  0  0
136176  1  0  0  0  0
137177  1  0  0  0  0
142178  1  0  0  0  0
144179  1  0  0  0  0
146180  1  0  0  0  0
148181  1  0  0  0  0
149182  1  0  0  0  0
151183  1  0  0  0  0
152184  1  0  0  0  0
157185  1  0  0  0  0
158186  1  0  0  0  0
163187  1  0  0  0  0
165188  1  0  0  0  0
167189  1  0  0  0  0
169190  1  0  0  0  0
170191  1  0  0  0  0
172192  1  0  0  0  0
173193  1  0  0  0  0
M  END
