 xtb: 6.5.1 (b24c23e)
          07302209153D

256295  0     0  0            999 V2000
   44.1351    0.0042   -0.0070 Zn  0  0  0  0  0  0  0  0  0  0  0  0
   40.7258    0.0500   -0.0828 C   0  0  0  0  0  0  0  0  0  0  0  0
   41.3576    1.2772    0.0774 C   0  0  0  0  0  0  0  0  0  0  0  0
   40.6849    2.5342    0.2502 C   0  0  0  0  0  0  0  0  0  0  0  0
   41.6448    3.4820    0.3903 C   0  0  0  0  0  0  0  0  0  0  0  0
   42.9171    2.8158    0.2942 C   0  0  0  0  0  0  0  0  0  0  0  0
   42.7075    1.4807    0.1128 N   0  0  0  0  0  0  0  0  0  0  0  0
   44.1697    3.4332    0.4053 C   0  0  0  0  0  0  0  0  0  0  0  0
   44.1824    4.9044    0.5869 C   0  0  0  0  0  0  0  0  0  0  0  0
   44.7327    5.4719    1.7405 C   0  0  0  0  0  0  0  0  0  0  0  0
   44.7364    6.8427    1.9112 C   0  0  0  0  0  0  0  0  0  0  0  0
   44.1952    7.6799    0.9296 C   0  0  0  0  0  0  0  0  0  0  0  0
   44.2115    9.1392    1.1341 C   0  0  0  0  0  0  0  0  0  0  0  0
   44.6682    9.6736    2.1124 O   0  0  0  0  0  0  0  0  0  0  0  0
   43.6486    7.1148   -0.2254 C   0  0  0  0  0  0  0  0  0  0  0  0
   43.6402    5.7417   -0.3926 C   0  0  0  0  0  0  0  0  0  0  0  0
   45.4084    2.7831    0.3610 C   0  0  0  0  0  0  0  0  0  0  0  0
   46.6893    3.4317    0.4222 C   0  0  0  0  0  0  0  0  0  0  0  0
   47.6337    2.4617    0.3249 C   0  0  0  0  0  0  0  0  0  0  0  0
   45.5994    1.4352    0.2148 N   0  0  0  0  0  0  0  0  0  0  0  0
   46.9411    1.2134    0.1950 C   0  0  0  0  0  0  0  0  0  0  0  0
   47.5706   -0.0402    0.0546 C   0  0  0  0  0  0  0  0  0  0  0  0
   46.9144   -1.2781   -0.1010 C   0  0  0  0  0  0  0  0  0  0  0  0
   47.5798   -2.5372   -0.2650 C   0  0  0  0  0  0  0  0  0  0  0  0
   46.6145   -3.4829   -0.3919 C   0  0  0  0  0  0  0  0  0  0  0  0
   45.3479   -2.8102   -0.2990 C   0  0  0  0  0  0  0  0  0  0  0  0
   45.5683   -1.4695   -0.1302 N   0  0  0  0  0  0  0  0  0  0  0  0
   44.0957   -3.4261   -0.4043 C   0  0  0  0  0  0  0  0  0  0  0  0
   44.0761   -4.9001   -0.5628 C   0  0  0  0  0  0  0  0  0  0  0  0
   43.5254   -5.4813   -1.7087 C   0  0  0  0  0  0  0  0  0  0  0  0
   43.5007   -6.8567   -1.8554 C   0  0  0  0  0  0  0  0  0  0  0  0
   44.0211   -7.6807   -0.8544 C   0  0  0  0  0  0  0  0  0  0  0  0
   43.9989   -9.1487   -0.9825 C   0  0  0  0  0  0  0  0  0  0  0  0
   44.4286   -9.9008   -0.1453 O   0  0  0  0  0  0  0  0  0  0  0  0
   44.5718   -7.0999    0.2930 C   0  0  0  0  0  0  0  0  0  0  0  0
   44.6020   -5.7262    0.4355 C   0  0  0  0  0  0  0  0  0  0  0  0
   42.8569   -2.7732   -0.3685 C   0  0  0  0  0  0  0  0  0  0  0  0
   41.5704   -3.4159   -0.4307 C   0  0  0  0  0  0  0  0  0  0  0  0
   40.6312   -2.4413   -0.3442 C   0  0  0  0  0  0  0  0  0  0  0  0
   41.3309   -1.1935   -0.2176 C   0  0  0  0  0  0  0  0  0  0  0  0
   42.6761   -1.4284   -0.2325 N   0  0  0  0  0  0  0  0  0  0  0  0
   39.6403    0.0627   -0.0910 H   0  0  0  0  0  0  0  0  0  0  0  0
   39.6139    2.6621    0.2690 H   0  0  0  0  0  0  0  0  0  0  0  0
   41.5075    4.5382    0.5582 H   0  0  0  0  0  0  0  0  0  0  0  0
   45.1408    4.8254    2.5093 H   0  0  0  0  0  0  0  0  0  0  0  0
   45.1551    7.2898    2.8064 H   0  0  0  0  0  0  0  0  0  0  0  0
   43.7615    9.7211    0.3015 H   0  0  0  0  0  0  0  0  0  0  0  0
   43.2306    7.7570   -0.9939 H   0  0  0  0  0  0  0  0  0  0  0  0
   43.2264    5.3070   -1.2956 H   0  0  0  0  0  0  0  0  0  0  0  0
   46.8450    4.4946    0.5131 H   0  0  0  0  0  0  0  0  0  0  0  0
   48.7061    2.5747    0.3327 H   0  0  0  0  0  0  0  0  0  0  0  0
   48.6495   -2.6718   -0.2858 H   0  0  0  0  0  0  0  0  0  0  0  0
   46.7466   -4.5413   -0.5487 H   0  0  0  0  0  0  0  0  0  0  0  0
   43.1308   -4.8442   -2.4924 H   0  0  0  0  0  0  0  0  0  0  0  0
   43.0761   -7.2986   -2.7510 H   0  0  0  0  0  0  0  0  0  0  0  0
   43.5463   -9.5169   -1.9279 H   0  0  0  0  0  0  0  0  0  0  0  0
   44.9705   -7.7474    1.0667 H   0  0  0  0  0  0  0  0  0  0  0  0
   45.0175   -5.2796    1.3318 H   0  0  0  0  0  0  0  0  0  0  0  0
   41.4103   -4.4788   -0.5156 H   0  0  0  0  0  0  0  0  0  0  0  0
   39.5578   -2.5469   -0.3556 H   0  0  0  0  0  0  0  0  0  0  0  0
   92.3051   -0.0398   -0.0263 Zn  0  0  0  0  0  0  0  0  0  0  0  0
   95.7149   -0.0743   -0.0798 C   0  0  0  0  0  0  0  0  0  0  0  0
   95.0834   -1.3118   -0.1032 C   0  0  0  0  0  0  0  0  0  0  0  0
   95.7562   -2.5806   -0.1062 C   0  0  0  0  0  0  0  0  0  0  0  0
   94.7964   -3.5387   -0.1140 C   0  0  0  0  0  0  0  0  0  0  0  0
   93.5241   -2.8656   -0.1266 C   0  0  0  0  0  0  0  0  0  0  0  0
   93.7335   -1.5183   -0.1110 N   0  0  0  0  0  0  0  0  0  0  0  0
   92.2712   -3.4924   -0.1209 C   0  0  0  0  0  0  0  0  0  0  0  0
   92.2582   -4.9744   -0.1541 C   0  0  0  0  0  0  0  0  0  0  0  0
   91.6920   -5.7017    0.8977 C   0  0  0  0  0  0  0  0  0  0  0  0
   91.6873   -7.0828    0.8690 C   0  0  0  0  0  0  0  0  0  0  0  0
   92.2436   -7.7703   -0.2151 C   0  0  0  0  0  0  0  0  0  0  0  0
   92.2254   -9.2438   -0.2235 C   0  0  0  0  0  0  0  0  0  0  0  0
   91.7539   -9.9132    0.6602 O   0  0  0  0  0  0  0  0  0  0  0  0
   92.8064   -7.0452   -1.2684 C   0  0  0  0  0  0  0  0  0  0  0  0
   92.8155   -5.6623   -1.2360 C   0  0  0  0  0  0  0  0  0  0  0  0
   91.0322   -2.8424   -0.0847 C   0  0  0  0  0  0  0  0  0  0  0  0
   89.7516   -3.4925   -0.1353 C   0  0  0  0  0  0  0  0  0  0  0  0
   88.8069   -2.5187   -0.0977 C   0  0  0  0  0  0  0  0  0  0  0  0
   90.8409   -1.4877   -0.0316 N   0  0  0  0  0  0  0  0  0  0  0  0
   89.4992   -1.2651   -0.0319 C   0  0  0  0  0  0  0  0  0  0  0  0
   88.8694   -0.0048    0.0161 C   0  0  0  0  0  0  0  0  0  0  0  0
   89.5252    1.2424    0.0545 C   0  0  0  0  0  0  0  0  0  0  0  0
   88.8595    2.5119    0.0756 C   0  0  0  0  0  0  0  0  0  0  0  0
   89.8247    3.4661    0.0930 C   0  0  0  0  0  0  0  0  0  0  0  0
   91.0913    2.7872    0.0905 C   0  0  0  0  0  0  0  0  0  0  0  0
   90.8713    1.4362    0.0596 N   0  0  0  0  0  0  0  0  0  0  0  0
   92.3437    3.4118    0.0806 C   0  0  0  0  0  0  0  0  0  0  0  0
   92.3637    4.8934    0.1348 C   0  0  0  0  0  0  0  0  0  0  0  0
   92.9194    5.6314   -0.9144 C   0  0  0  0  0  0  0  0  0  0  0  0
   92.9454    7.0136   -0.8634 C   0  0  0  0  0  0  0  0  0  0  0  0
   92.4212    7.6870    0.2428 C   0  0  0  0  0  0  0  0  0  0  0  0
   92.4451    9.1583    0.3255 C   0  0  0  0  0  0  0  0  0  0  0  0
   92.0132    9.7838    1.2600 O   0  0  0  0  0  0  0  0  0  0  0  0
   91.8653    6.9491    1.2934 C   0  0  0  0  0  0  0  0  0  0  0  0
   91.8339    5.5692    1.2384 C   0  0  0  0  0  0  0  0  0  0  0  0
   93.5828    2.7605    0.0279 C   0  0  0  0  0  0  0  0  0  0  0  0
   94.8689    3.4056    0.0669 C   0  0  0  0  0  0  0  0  0  0  0  0
   95.8086    2.4288    0.0190 C   0  0  0  0  0  0  0  0  0  0  0  0
   95.1093    1.1757   -0.0398 C   0  0  0  0  0  0  0  0  0  0  0  0
   93.7641    1.4102   -0.0300 N   0  0  0  0  0  0  0  0  0  0  0  0
   96.8004   -0.0855   -0.0806 H   0  0  0  0  0  0  0  0  0  0  0  0
   96.8271   -2.7097   -0.0950 H   0  0  0  0  0  0  0  0  0  0  0  0
   94.9336   -4.6080   -0.0984 H   0  0  0  0  0  0  0  0  0  0  0  0
   91.2721   -5.1724    1.7456 H   0  0  0  0  0  0  0  0  0  0  0  0
   91.2561   -7.6538    1.6842 H   0  0  0  0  0  0  0  0  0  0  0  0
   92.6897   -9.7001   -1.1238 H   0  0  0  0  0  0  0  0  0  0  0  0
   93.2363   -7.5703   -2.1153 H   0  0  0  0  0  0  0  0  0  0  0  0
   93.2416   -5.1024   -2.0610 H   0  0  0  0  0  0  0  0  0  0  0  0
   89.5964   -4.5570   -0.2055 H   0  0  0  0  0  0  0  0  0  0  0  0
   87.7347   -2.6314   -0.1185 H   0  0  0  0  0  0  0  0  0  0  0  0
   87.7898    2.6478    0.0708 H   0  0  0  0  0  0  0  0  0  0  0  0
   89.6923    4.5360    0.0934 H   0  0  0  0  0  0  0  0  0  0  0  0
   93.3171    5.1121   -1.7791 H   0  0  0  0  0  0  0  0  0  0  0  0
   93.3741    7.5783   -1.6850 H   0  0  0  0  0  0  0  0  0  0  0  0
   92.9022    9.6569   -0.5559 H   0  0  0  0  0  0  0  0  0  0  0  0
   91.4638    7.4801    2.1498 H   0  0  0  0  0  0  0  0  0  0  0  0
   91.4145    4.9998    2.0603 H   0  0  0  0  0  0  0  0  0  0  0  0
   95.0285    4.4697    0.1367 H   0  0  0  0  0  0  0  0  0  0  0  0
   96.8820    2.5350    0.0302 H   0  0  0  0  0  0  0  0  0  0  0  0
   52.7732   -0.0720    0.0555 C   0  0  0  0  0  0  0  0  0  0  0  0
   51.5446   -0.0702    0.0588 C   0  0  0  0  0  0  0  0  0  0  0  0
   50.2002   -0.0637    0.0612 C   0  0  0  0  0  0  0  0  0  0  0  0
   48.9760   -0.0547    0.0610 C   0  0  0  0  0  0  0  0  0  0  0  0
   54.1175   -0.0721    0.0501 C   0  0  0  0  0  0  0  0  0  0  0  0
   55.3418   -0.0703    0.0437 C   0  0  0  0  0  0  0  0  0  0  0  0
   68.8342   -0.0293   -0.0021 C   0  0  0  0  0  0  0  0  0  0  0  0
   67.6053   -0.0323   -0.0062 C   0  0  0  0  0  0  0  0  0  0  0  0
   66.2612   -0.0353   -0.0087 C   0  0  0  0  0  0  0  0  0  0  0  0
   65.0367   -0.0382   -0.0100 C   0  0  0  0  0  0  0  0  0  0  0  0
   70.1783   -0.0263    0.0016 C   0  0  0  0  0  0  0  0  0  0  0  0
   71.4029   -0.0234    0.0053 C   0  0  0  0  0  0  0  0  0  0  0  0
   84.8952    0.0149    0.0102 C   0  0  0  0  0  0  0  0  0  0  0  0
   83.6666    0.0122    0.0056 C   0  0  0  0  0  0  0  0  0  0  0  0
   82.3223    0.0095   -0.0001 C   0  0  0  0  0  0  0  0  0  0  0  0
   81.0980    0.0043   -0.0037 C   0  0  0  0  0  0  0  0  0  0  0  0
   86.2397    0.0125    0.0131 C   0  0  0  0  0  0  0  0  0  0  0  0
   87.4638    0.0080    0.0144 C   0  0  0  0  0  0  0  0  0  0  0  0
   60.1892   -0.0524    0.0094 Zn  0  0  0  0  0  0  0  0  0  0  0  0
   56.7467   -0.0658    0.0344 C   0  0  0  0  0  0  0  0  0  0  0  0
   57.3894    1.1394    0.3837 C   0  0  0  0  0  0  0  0  0  0  0  0
   56.7105    2.3574    0.7134 C   0  0  0  0  0  0  0  0  0  0  0  0
   57.6655    3.2792    0.9990 C   0  0  0  0  0  0  0  0  0  0  0  0
   58.9377    2.6282    0.8551 C   0  0  0  0  0  0  0  0  0  0  0  0
   58.7332    1.3307    0.4699 N   0  0  0  0  0  0  0  0  0  0  0  0
   60.1839    3.2344    1.0521 C   0  0  0  0  0  0  0  0  0  0  0  0
   60.1806    4.6475    1.5017 C   0  0  0  0  0  0  0  0  0  0  0  0
   60.7502    5.6460    0.7055 C   0  0  0  0  0  0  0  0  0  0  0  0
   60.7425    6.9623    1.1248 C   0  0  0  0  0  0  0  0  0  0  0  0
   60.1705    7.3107    2.3529 C   0  0  0  0  0  0  0  0  0  0  0  0
   60.1776    8.7216    2.7796 C   0  0  0  0  0  0  0  0  0  0  0  0
   60.6541    9.6157    2.1283 O   0  0  0  0  0  0  0  0  0  0  0  0
   59.6038    6.3138    3.1509 C   0  0  0  0  0  0  0  0  0  0  0  0
   59.6066    4.9968    2.7274 C   0  0  0  0  0  0  0  0  0  0  0  0
   61.4319    2.6297    0.8641 C   0  0  0  0  0  0  0  0  0  0  0  0
   62.7021    3.2491    1.1210 C   0  0  0  0  0  0  0  0  0  0  0  0
   63.6600    2.3335    0.8257 C   0  0  0  0  0  0  0  0  0  0  0  0
   61.6407    1.3468    0.4339 N   0  0  0  0  0  0  0  0  0  0  0  0
   62.9850    1.1449    0.3955 C   0  0  0  0  0  0  0  0  0  0  0  0
   63.6319   -0.0415   -0.0070 C   0  0  0  0  0  0  0  0  0  0  0  0
   62.9886   -1.2315   -0.4050 C   0  0  0  0  0  0  0  0  0  0  0  0
   63.6666   -2.4147   -0.8450 C   0  0  0  0  0  0  0  0  0  0  0  0
   62.7115   -3.3369   -1.1293 C   0  0  0  0  0  0  0  0  0  0  0  0
   61.4403   -2.7270   -0.8554 C   0  0  0  0  0  0  0  0  0  0  0  0
   61.6454   -1.4429   -0.4270 N   0  0  0  0  0  0  0  0  0  0  0  0
   60.1944   -3.3418   -1.0247 C   0  0  0  0  0  0  0  0  0  0  0  0
   60.1954   -4.7570   -1.4675 C   0  0  0  0  0  0  0  0  0  0  0  0
   60.7853   -5.7446   -0.6734 C   0  0  0  0  0  0  0  0  0  0  0  0
   60.7807   -7.0670   -1.0798 C   0  0  0  0  0  0  0  0  0  0  0  0
   60.1907   -7.4283   -2.2935 C   0  0  0  0  0  0  0  0  0  0  0  0
   60.1727   -8.8299   -2.7494 C   0  0  0  0  0  0  0  0  0  0  0  0
   59.6766   -9.1904   -3.7861 O   0  0  0  0  0  0  0  0  0  0  0  0
   59.6044   -6.4397   -3.0910 C   0  0  0  0  0  0  0  0  0  0  0  0
   59.6042   -5.1203   -2.6815 C   0  0  0  0  0  0  0  0  0  0  0  0
   58.9464   -2.7444   -0.8128 C   0  0  0  0  0  0  0  0  0  0  0  0
   57.6771   -3.4048   -0.9391 C   0  0  0  0  0  0  0  0  0  0  0  0
   56.7193   -2.4895   -0.6426 C   0  0  0  0  0  0  0  0  0  0  0  0
   57.3936   -1.2663   -0.3231 C   0  0  0  0  0  0  0  0  0  0  0  0
   58.7376   -1.4479   -0.4262 N   0  0  0  0  0  0  0  0  0  0  0  0
   55.6399    2.4859    0.7167 H   0  0  0  0  0  0  0  0  0  0  0  0
   57.5220    4.3126    1.2703 H   0  0  0  0  0  0  0  0  0  0  0  0
   61.1832    5.3809   -0.2524 H   0  0  0  0  0  0  0  0  0  0  0  0
   61.1765    7.7435    0.5099 H   0  0  0  0  0  0  0  0  0  0  0  0
   59.7011    8.9015    3.7670 H   0  0  0  0  0  0  0  0  0  0  0  0
   59.1615    6.5747    4.1069 H   0  0  0  0  0  0  0  0  0  0  0  0
   59.1766    4.2235    3.3540 H   0  0  0  0  0  0  0  0  0  0  0  0
   62.8422    4.2516    1.4919 H   0  0  0  0  0  0  0  0  0  0  0  0
   64.7303    2.4440    0.8971 H   0  0  0  0  0  0  0  0  0  0  0  0
   64.7366   -2.5171   -0.9307 H   0  0  0  0  0  0  0  0  0  0  0  0
   62.8540   -4.3375   -1.5042 H   0  0  0  0  0  0  0  0  0  0  0  0
   61.2326   -5.4691    0.2751 H   0  0  0  0  0  0  0  0  0  0  0  0
   61.2348   -7.8280   -0.4533 H   0  0  0  0  0  0  0  0  0  0  0  0
   60.6604   -9.5428   -2.0506 H   0  0  0  0  0  0  0  0  0  0  0  0
   59.1525   -6.7286   -4.0338 H   0  0  0  0  0  0  0  0  0  0  0  0
   59.1592   -4.3549   -3.3072 H   0  0  0  0  0  0  0  0  0  0  0  0
   57.5374   -4.4394   -1.2077 H   0  0  0  0  0  0  0  0  0  0  0  0
   55.6497   -2.6255   -0.6322 H   0  0  0  0  0  0  0  0  0  0  0  0
   76.2504   -0.0093    0.0001 Zn  0  0  0  0  0  0  0  0  0  0  0  0
   72.8076   -0.0200    0.0066 C   0  0  0  0  0  0  0  0  0  0  0  0
   73.4496    1.1833    0.3647 C   0  0  0  0  0  0  0  0  0  0  0  0
   72.7698    2.4003    0.6966 C   0  0  0  0  0  0  0  0  0  0  0  0
   73.7242    3.3216    0.9863 C   0  0  0  0  0  0  0  0  0  0  0  0
   74.9967    2.6715    0.8422 C   0  0  0  0  0  0  0  0  0  0  0  0
   74.7930    1.3743    0.4545 N   0  0  0  0  0  0  0  0  0  0  0  0
   76.2423    3.2786    1.0383 C   0  0  0  0  0  0  0  0  0  0  0  0
   76.2409    4.6926    1.4858 C   0  0  0  0  0  0  0  0  0  0  0  0
   76.8087    5.6888    0.6856 C   0  0  0  0  0  0  0  0  0  0  0  0
   76.8091    7.0051    1.1049 C   0  0  0  0  0  0  0  0  0  0  0  0
   76.2474    7.3555    2.3372 C   0  0  0  0  0  0  0  0  0  0  0  0
   76.2661    8.7659    2.7653 C   0  0  0  0  0  0  0  0  0  0  0  0
   76.7412    9.6580    2.1102 O   0  0  0  0  0  0  0  0  0  0  0  0
   75.6809    6.3610    3.1383 C   0  0  0  0  0  0  0  0  0  0  0  0
   75.6751    5.0440    2.7145 C   0  0  0  0  0  0  0  0  0  0  0  0
   77.4910    2.6745    0.8514 C   0  0  0  0  0  0  0  0  0  0  0  0
   78.7606    3.2959    1.1066 C   0  0  0  0  0  0  0  0  0  0  0  0
   79.7193    2.3799    0.8155 C   0  0  0  0  0  0  0  0  0  0  0  0
   77.7007    1.3905    0.4258 N   0  0  0  0  0  0  0  0  0  0  0  0
   79.0453    1.1892    0.3896 C   0  0  0  0  0  0  0  0  0  0  0  0
   79.6930    0.0005   -0.0039 C   0  0  0  0  0  0  0  0  0  0  0  0
   79.0512   -1.1918   -0.3963 C   0  0  0  0  0  0  0  0  0  0  0  0
   79.7309   -2.3773   -0.8269 C   0  0  0  0  0  0  0  0  0  0  0  0
   78.7767   -3.2997   -1.1137 C   0  0  0  0  0  0  0  0  0  0  0  0
   77.5044   -2.6874   -0.8503 C   0  0  0  0  0  0  0  0  0  0  0  0
   77.7078   -1.4023   -0.4252 N   0  0  0  0  0  0  0  0  0  0  0  0
   76.2587   -3.3007   -1.0284 C   0  0  0  0  0  0  0  0  0  0  0  0
   76.2635   -4.7162   -1.4702 C   0  0  0  0  0  0  0  0  0  0  0  0
   76.8483   -5.7029   -0.6712 C   0  0  0  0  0  0  0  0  0  0  0  0
   76.8535   -7.0246   -1.0797 C   0  0  0  0  0  0  0  0  0  0  0  0
   76.2781   -7.3862   -2.3003 C   0  0  0  0  0  0  0  0  0  0  0  0
   76.2739   -8.7866   -2.7600 C   0  0  0  0  0  0  0  0  0  0  0  0
   75.7914   -9.1476   -3.8030 O   0  0  0  0  0  0  0  0  0  0  0  0
   75.6951   -6.3989   -3.1017 C   0  0  0  0  0  0  0  0  0  0  0  0
   75.6852   -5.0802   -2.6902 C   0  0  0  0  0  0  0  0  0  0  0  0
   75.0102   -2.7010   -0.8279 C   0  0  0  0  0  0  0  0  0  0  0  0
   73.7409   -3.3592   -0.9652 C   0  0  0  0  0  0  0  0  0  0  0  0
   72.7821   -2.4423   -0.6763 C   0  0  0  0  0  0  0  0  0  0  0  0
   73.4558   -1.2203   -0.3504 C   0  0  0  0  0  0  0  0  0  0  0  0
   74.8001   -1.4041   -0.4428 N   0  0  0  0  0  0  0  0  0  0  0  0
   71.6992    2.5285    0.6985 H   0  0  0  0  0  0  0  0  0  0  0  0
   73.5804    4.3542    1.2607 H   0  0  0  0  0  0  0  0  0  0  0  0
   77.2351    5.4218   -0.2747 H   0  0  0  0  0  0  0  0  0  0  0  0
   77.2428    7.7845    0.4875 H   0  0  0  0  0  0  0  0  0  0  0  0
   75.8005    8.9474    3.7575 H   0  0  0  0  0  0  0  0  0  0  0  0
   75.2461    6.6236    4.0973 H   0  0  0  0  0  0  0  0  0  0  0  0
   75.2459    4.2724    3.3438 H   0  0  0  0  0  0  0  0  0  0  0  0
   78.8999    4.2998    1.4737 H   0  0  0  0  0  0  0  0  0  0  0  0
   80.7894    2.4913    0.8873 H   0  0  0  0  0  0  0  0  0  0  0  0
   80.8013   -2.4810   -0.9056 H   0  0  0  0  0  0  0  0  0  0  0  0
   78.9209   -4.3018   -1.4839 H   0  0  0  0  0  0  0  0  0  0  0  0
   77.2850   -5.4270    0.2821 H   0  0  0  0  0  0  0  0  0  0  0  0
   77.3045   -7.7847   -0.4499 H   0  0  0  0  0  0  0  0  0  0  0  0
   76.7591   -9.4982   -2.0581 H   0  0  0  0  0  0  0  0  0  0  0  0
   75.2543   -6.6881   -4.0497 H   0  0  0  0  0  0  0  0  0  0  0  0
   75.2437   -4.3156   -3.3195 H   0  0  0  0  0  0  0  0  0  0  0  0
   73.6019   -4.3935   -1.2354 H   0  0  0  0  0  0  0  0  0  0  0  0
   71.7122   -2.5767   -0.6747 H   0  0  0  0  0  0  0  0  0  0  0  0
  2  3  4  0  0  0  0
  3  4  1  0  0  0  0
  4  5  2  0  0  0  0
  5  6  4  0  0  0  0
  1  7  1  0  0  0  0
  3  7  4  0  0  0  0
  6  7  4  0  0  0  0
  6  8  4  0  0  0  0
  8  9  1  0  0  0  0
  9 10  4  0  0  0  0
 10 11  4  0  0  0  0
 11 12  4  0  0  0  0
 12 13  1  0  0  0  0
 13 14  2  0  0  0  0
 12 15  4  0  0  0  0
  9 16  4  0  0  0  0
 15 16  4  0  0  0  0
  8 17  4  0  0  0  0
 17 18  4  0  0  0  0
 18 19  2  0  0  0  0
  1 20  1  0  0  0  0
 17 20  4  0  0  0  0
 19 21  4  0  0  0  0
 20 21  4  0  0  0  0
 21 22  4  0  0  0  0
 22 23  4  0  0  0  0
 23 24  4  0  0  0  0
 24 25  2  0  0  0  0
 25 26  4  0  0  0  0
  1 27  1  0  0  0  0
 23 27  4  0  0  0  0
 26 27  4  0  0  0  0
 26 28  4  0  0  0  0
 28 29  1  0  0  0  0
 29 30  4  0  0  0  0
 30 31  4  0  0  0  0
 31 32  4  0  0  0  0
 32 33  1  0  0  0  0
 33 34  2  0  0  0  0
 32 35  4  0  0  0  0
 29 36  4  0  0  0  0
 35 36  4  0  0  0  0
 28 37  4  0  0  0  0
 37 38  4  0  0  0  0
 38 39  2  0  0  0  0
  2 40  4  0  0  0  0
 39 40  1  0  0  0  0
  1 41  1  0  0  0  0
 37 41  4  0  0  0  0
 40 41  4  0  0  0  0
  2 42  1  0  0  0  0
  4 43  1  0  0  0  0
  5 44  1  0  0  0  0
 10 45  1  0  0  0  0
 11 46  1  0  0  0  0
 13 47  1  0  0  0  0
 15 48  1  0  0  0  0
 16 49  1  0  0  0  0
 18 50  1  0  0  0  0
 19 51  1  0  0  0  0
 24 52  1  0  0  0  0
 25 53  1  0  0  0  0
 30 54  1  0  0  0  0
 31 55  1  0  0  0  0
 33 56  1  0  0  0  0
 35 57  1  0  0  0  0
 36 58  1  0  0  0  0
 38 59  1  0  0  0  0
 39 60  1  0  0  0  0
 62 63  4  0  0  0  0
 63 64  1  0  0  0  0
 64 65  2  0  0  0  0
 65 66  4  0  0  0  0
 61 67  1  0  0  0  0
 63 67  4  0  0  0  0
 66 67  4  0  0  0  0
 66 68  4  0  0  0  0
 68 69  1  0  0  0  0
 69 70  4  0  0  0  0
 70 71  4  0  0  0  0
 71 72  4  0  0  0  0
 72 73  1  0  0  0  0
 73 74  2  0  0  0  0
 72 75  4  0  0  0  0
 69 76  4  0  0  0  0
 75 76  4  0  0  0  0
 68 77  4  0  0  0  0
 77 78  4  0  0  0  0
 78 79  2  0  0  0  0
 61 80  1  0  0  0  0
 77 80  4  0  0  0  0
 79 81  4  0  0  0  0
 80 81  4  0  0  0  0
 81 82  4  0  0  0  0
 82 83  4  0  0  0  0
 83 84  4  0  0  0  0
 84 85  2  0  0  0  0
 85 86  4  0  0  0  0
 61 87  1  0  0  0  0
 83 87  4  0  0  0  0
 86 87  4  0  0  0  0
 86 88  4  0  0  0  0
 88 89  1  0  0  0  0
 89 90  4  0  0  0  0
 90 91  4  0  0  0  0
 91 92  4  0  0  0  0
 92 93  1  0  0  0  0
 93 94  2  0  0  0  0
 92 95  4  0  0  0  0
 89 96  4  0  0  0  0
 95 96  4  0  0  0  0
 88 97  4  0  0  0  0
 97 98  4  0  0  0  0
 98 99  2  0  0  0  0
 62100  4  0  0  0  0
 99100  1  0  0  0  0
 61101  1  0  0  0  0
 97101  4  0  0  0  0
100101  4  0  0  0  0
 62102  1  0  0  0  0
 64103  1  0  0  0  0
 65104  1  0  0  0  0
 70105  1  0  0  0  0
 71106  1  0  0  0  0
 73107  1  0  0  0  0
 75108  1  0  0  0  0
 76109  1  0  0  0  0
 78110  1  0  0  0  0
 79111  1  0  0  0  0
 84112  1  0  0  0  0
 85113  1  0  0  0  0
 90114  1  0  0  0  0
 91115  1  0  0  0  0
 93116  1  0  0  0  0
 95117  1  0  0  0  0
 96118  1  0  0  0  0
 98119  1  0  0  0  0
 99120  1  0  0  0  0
121122  3  0  0  0  0
122123  4  0  0  0  0
 22124  4  0  0  0  0
123124  3  0  0  0  0
121125  4  0  0  0  0
125126  3  0  0  0  0
127128  3  0  0  0  0
128129  4  0  0  0  0
129130  3  0  0  0  0
127131  4  0  0  0  0
131132  3  0  0  0  0
133134  3  0  0  0  0
134135  4  0  0  0  0
135136  3  0  0  0  0
133137  4  0  0  0  0
 82138  4  0  0  0  0
137138  3  0  0  0  0
126140  4  0  0  0  0
140141  4  0  0  0  0
141142  4  0  0  0  0
142143  2  0  0  0  0
143144  4  0  0  0  0
139145  1  0  0  0  0
141145  4  0  0  0  0
144145  4  0  0  0  0
144146  4  0  0  0  0
146147  1  0  0  0  0
147148  4  0  0  0  0
148149  4  0  0  0  0
149150  4  0  0  0  0
150151  1  0  0  0  0
151152  2  0  0  0  0
150153  4  0  0  0  0
147154  4  0  0  0  0
153154  4  0  0  0  0
146155  4  0  0  0  0
155156  4  0  0  0  0
156157  2  0  0  0  0
139158  1  0  0  0  0
155158  4  0  0  0  0
157159  4  0  0  0  0
158159  4  0  0  0  0
130160  4  0  0  0  0
159160  4  0  0  0  0
160161  4  0  0  0  0
161162  4  0  0  0  0
162163  2  0  0  0  0
163164  4  0  0  0  0
139165  1  0  0  0  0
161165  4  0  0  0  0
164165  4  0  0  0  0
164166  4  0  0  0  0
166167  1  0  0  0  0
167168  4  0  0  0  0
168169  4  0  0  0  0
169170  4  0  0  0  0
170171  1  0  0  0  0
171172  2  0  0  0  0
170173  4  0  0  0  0
167174  4  0  0  0  0
173174  4  0  0  0  0
166175  4  0  0  0  0
175176  4  0  0  0  0
176177  2  0  0  0  0
140178  4  0  0  0  0
177178  4  0  0  0  0
139179  1  0  0  0  0
175179  4  0  0  0  0
178179  4  0  0  0  0
142180  1  0  0  0  0
143181  1  0  0  0  0
148182  1  0  0  0  0
149183  1  0  0  0  0
151184  1  0  0  0  0
153185  1  0  0  0  0
154186  1  0  0  0  0
156187  1  0  0  0  0
157188  1  0  0  0  0
162189  1  0  0  0  0
163190  1  0  0  0  0
168191  1  0  0  0  0
169192  1  0  0  0  0
171193  1  0  0  0  0
173194  1  0  0  0  0
174195  1  0  0  0  0
176196  1  0  0  0  0
177197  1  0  0  0  0
132199  4  0  0  0  0
199200  4  0  0  0  0
200201  4  0  0  0  0
201202  2  0  0  0  0
202203  4  0  0  0  0
198204  1  0  0  0  0
200204  4  0  0  0  0
203204  4  0  0  0  0
203205  4  0  0  0  0
205206  1  0  0  0  0
206207  4  0  0  0  0
207208  4  0  0  0  0
208209  4  0  0  0  0
209210  1  0  0  0  0
210211  2  0  0  0  0
209212  4  0  0  0  0
206213  4  0  0  0  0
212213  4  0  0  0  0
205214  4  0  0  0  0
214215  4  0  0  0  0
215216  2  0  0  0  0
198217  1  0  0  0  0
214217  4  0  0  0  0
216218  4  0  0  0  0
217218  4  0  0  0  0
136219  4  0  0  0  0
218219  4  0  0  0  0
219220  4  0  0  0  0
220221  4  0  0  0  0
221222  2  0  0  0  0
222223  4  0  0  0  0
198224  1  0  0  0  0
220224  4  0  0  0  0
223224  4  0  0  0  0
223225  4  0  0  0  0
225226  1  0  0  0  0
226227  4  0  0  0  0
227228  4  0  0  0  0
228229  4  0  0  0  0
229230  1  0  0  0  0
230231  2  0  0  0  0
229232  4  0  0  0  0
226233  4  0  0  0  0
232233  4  0  0  0  0
225234  4  0  0  0  0
234235  4  0  0  0  0
235236  2  0  0  0  0
199237  4  0  0  0  0
236237  4  0  0  0  0
198238  1  0  0  0  0
234238  4  0  0  0  0
237238  4  0  0  0  0
201239  1  0  0  0  0
202240  1  0  0  0  0
207241  1  0  0  0  0
208242  1  0  0  0  0
210243  1  0  0  0  0
212244  1  0  0  0  0
213245  1  0  0  0  0
215246  1  0  0  0  0
216247  1  0  0  0  0
221248  1  0  0  0  0
222249  1  0  0  0  0
227250  1  0  0  0  0
228251  1  0  0  0  0
230252  1  0  0  0  0
232253  1  0  0  0  0
233254  1  0  0  0  0
235255  1  0  0  0  0
236256  1  0  0  0  0
M  END
