136

C 11.086282 0.007306 0.072383
C 11.815546 -1.359206 -0.108672
C 11.212385 -2.596065 -0.135466
C 12.234563 -3.551237 -0.372904
C 13.427190 -2.863490 -0.490319
N 13.166052 -1.533576 -0.274258
C 14.846525 -3.479171 -0.836334
C 14.878228 -4.867725 -1.348063
C 14.673438 -5.119274 -2.711418
C 14.664779 -6.428927 -3.192192
C 14.860373 -7.484564 -2.297377
S 14.755418 -9.157086 -2.862444
O 14.168222 -9.160540 -4.187267
O 13.623797 -9.808310 -1.908399
O 16.011560 -9.817223 -2.583040
C 15.076200 -7.248627 -0.936000
C 15.087093 -5.936211 -0.465225
C 15.977834 -2.736791 -0.704751
C 17.279370 -3.252870 -1.076064
C 18.182722 -2.302702 -0.864763
N 16.176600 -1.457315 -0.259247
C 17.507232 -1.136800 -0.330360
C 18.175836 -0.000182 0.000050
C 17.398882 1.235568 0.620870
C 17.934080 2.203066 1.448296
C 16.908809 3.140774 1.727321
C 15.774754 2.714924 1.068844
N 16.067786 1.525465 0.444881
C 14.368537 3.448112 1.050365
C 14.349637 4.904980 1.301661
C 14.727215 5.793558 0.286552
C 14.762614 7.166133 0.531098
C 14.415017 7.643915 1.798839
S 14.579171 9.372262 2.137518
O 13.518355 10.075474 1.452167
O 15.981842 9.771806 1.438576
O 14.813672 9.535187 3.557917
C 14.027011 6.771221 2.819136
C 13.994079 5.400082 2.564529
C 13.240978 2.738428 0.790254
C 11.922143 3.343944 0.741523
C 11.034244 2.389156 0.479748
C 11.752040 1.145578 0.342652
N 13.073086 1.408179 0.527104
H 10.009078 0.028287 -0.041742
H 10.157220 -2.786521 -0.013005
H 12.109005 -4.618758 -0.470021
H 13.864405 -0.794765 -0.238976
H 14.516411 -4.278713 -3.385207
H 14.495823 -6.606292 -4.250476
H 12.748606 -9.579597 -2.283134
H 15.232179 -8.069950 -0.242048
H 15.252210 -5.725012 0.589978
H 17.490219 -4.231855 -1.467890
H 19.235154 -2.406666 -1.056213
H 18.952281 2.237234 1.805926
H 16.990406 4.027265 2.337599
H 15.386962 0.928221 -0.017457
H 14.999426 5.396518 -0.690008
H 15.064024 7.843160 -0.263502
H 16.707493 9.453005 2.013896
H 13.763404 7.137252 3.807504
H 13.701996 4.697535 3.343526
H 11.695246 4.384457 0.887989
H 9.971676 2.516170 0.378794
C 34.642084 -0.044996 0.057319
C 33.912821 1.208479 0.630850
C 34.515981 2.270111 1.266047
C 33.493804 3.205251 1.573039
C 32.301176 2.685315 1.107798
N 32.562314 1.444212 0.583378
C 30.881841 3.390724 1.142271
C 30.850138 4.838749 1.447508
C 31.054928 5.776932 0.426809
C 31.063587 7.141679 0.716291
C 30.867993 7.559647 2.035521
S 30.972948 9.276510 2.446634
O 31.560145 9.984109 1.326602
O 32.104569 9.320513 3.600912
O 29.716806 9.686903 3.034362
C 30.652167 6.635736 3.062849
C 30.641274 5.273968 2.763430
C 29.750532 2.692082 0.858824
C 28.448996 3.326603 0.818897
C 27.545644 2.409603 0.492433
N 29.551766 1.371649 0.555525
C 28.221134 1.138060 0.324825
C 27.552530 -0.000182 0.000050
C 28.329484 -1.376837 -0.131531
C 27.794286 -2.636230 0.054526
C 28.819557 -3.578701 -0.207962
C 29.953612 -2.867844 -0.539054
N 29.660580 -1.528715 -0.434757
C 31.359829 -3.478883 -0.944685
C 31.378729 -4.846233 -1.506795
C 31.001151 -5.058750 -2.839032
C 30.965752 -6.351130 -3.362022
C 31.313350 -7.430031 -2.542623
S 31.149195 -9.073751 -3.175136
O 32.210012 -9.304697 -4.129535
O 29.746524 -9.040319 -3.979523
O 30.914694 -9.967227 -2.058993
C 31.701355 -7.233725 -1.214443
C 31.734287 -5.937209 -0.700735
C 32.487388 -2.739565 -0.787468
C 33.806223 -3.226400 -1.150808
C 34.694122 -2.278641 -0.864629
C 33.976326 -1.152649 -0.319262
N 32.655281 -1.473131 -0.302745
H 35.719289 -0.002059 -0.050482
H 35.571146 2.366254 1.471051
H 33.619361 4.160891 2.058614
H 31.863961 0.799815 0.220280
H 31.211956 5.423528 -0.590855
H 31.232543 7.854776 -0.085530
H 32.979760 9.326160 3.161931
H 30.496187 6.962126 4.087355
H 30.476156 4.533861 3.544646
H 28.238147 4.364027 1.007818
H 26.493212 2.599473 0.385610
H 26.776086 -2.855386 0.339195
H 28.737960 -4.653994 -0.162700
H 30.341404 -0.777047 -0.508593
H 30.728940 -4.203101 -3.454803
H 30.664343 -6.501793 -4.395006
H 29.020873 -9.076370 -3.322767
H 31.964962 -8.069395 -0.572178
H 32.026371 -5.756637 0.332610
H 34.033120 -4.185418 -1.580229
H 35.756690 -2.332499 -1.017675
C 23.468103 0.001130 0.008482
C 22.259164 -0.012325 0.000035
C 20.837635 -0.003506 -0.011948
C 19.625966 0.003933 -0.001085
C 24.884708 -0.005545 0.009016
C 26.105403 0.003933 -0.001085
