 xtb: 6.5.1 (b24c23e)
          07302205583D

183212  0     0  0            999 V2000
   23.7369   -0.0153   -0.0015 Ni  0  0  0  0  0  0  0  0  0  0  0  0
   20.3397   -0.0358    0.0493 C   0  0  0  0  0  0  0  0  0  0  0  0
   20.9912   -1.2437   -0.0847 C   0  0  0  0  0  0  0  0  0  0  0  0
   20.3088   -2.4973   -0.1867 C   0  0  0  0  0  0  0  0  0  0  0  0
   21.2635   -3.4540   -0.2529 C   0  0  0  0  0  0  0  0  0  0  0  0
   22.5290   -2.7825   -0.1989 C   0  0  0  0  0  0  0  0  0  0  0  0
   22.3516   -1.4250   -0.0991 N   0  0  0  0  0  0  0  0  0  0  0  0
   23.7504   -3.4426   -0.1868 C   0  0  0  0  0  0  0  0  0  0  0  0
   24.9649   -2.7768   -0.1011 C   0  0  0  0  0  0  0  0  0  0  0  0
   26.2324   -3.4421   -0.1111 C   0  0  0  0  0  0  0  0  0  0  0  0
   27.1813   -2.4773   -0.0594 C   0  0  0  0  0  0  0  0  0  0  0  0
   25.1375   -1.4112   -0.0498 N   0  0  0  0  0  0  0  0  0  0  0  0
   26.4924   -1.2266   -0.0285 C   0  0  0  0  0  0  0  0  0  0  0  0
   27.1552    0.0039   -0.0220 C   0  0  0  0  0  0  0  0  0  0  0  0
   26.4788    1.2270   -0.0168 C   0  0  0  0  0  0  0  0  0  0  0  0
   27.1521    2.4861   -0.0494 C   0  0  0  0  0  0  0  0  0  0  0  0
   26.1926    3.4408   -0.0039 C   0  0  0  0  0  0  0  0  0  0  0  0
   24.9353    2.7603    0.0685 C   0  0  0  0  0  0  0  0  0  0  0  0
   23.7148    3.4134    0.1657 C   0  0  0  0  0  0  0  0  0  0  0  0
   23.7044    4.8956    0.2372 C   0  0  0  0  0  0  0  0  0  0  0  0
   23.1120    5.6473   -0.7778 C   0  0  0  0  0  0  0  0  0  0  0  0
   23.1033    7.0324   -0.7093 C   0  0  0  0  0  0  0  0  0  0  0  0
   23.6800    7.6814    0.3740 C   0  0  0  0  0  0  0  0  0  0  0  0
   24.2690    6.9397    1.3889 C   0  0  0  0  0  0  0  0  0  0  0  0
   24.2845    5.5546    1.3215 C   0  0  0  0  0  0  0  0  0  0  0  0
   22.5018    2.7387    0.2030 C   0  0  0  0  0  0  0  0  0  0  0  0
   21.2334    3.3911    0.3472 C   0  0  0  0  0  0  0  0  0  0  0  0
   20.2884    2.4229    0.3128 C   0  0  0  0  0  0  0  0  0  0  0  0
   20.9806    1.1803    0.1567 C   0  0  0  0  0  0  0  0  0  0  0  0
   22.3377    1.3793    0.1082 N   0  0  0  0  0  0  0  0  0  0  0  0
   25.1229    1.3961    0.0369 N   0  0  0  0  0  0  0  0  0  0  0  0
   23.7567   -4.9252   -0.2603 C   0  0  0  0  0  0  0  0  0  0  0  0
   23.3042   -5.5782   -1.4069 C   0  0  0  0  0  0  0  0  0  0  0  0
   23.3123   -6.9637   -1.4724 C   0  0  0  0  0  0  0  0  0  0  0  0
   23.7670   -7.7110   -0.3945 C   0  0  0  0  0  0  0  0  0  0  0  0
   24.2163   -7.0676    0.7506 C   0  0  0  0  0  0  0  0  0  0  0  0
   24.2139   -5.6824    0.8185 C   0  0  0  0  0  0  0  0  0  0  0  0
   19.2562   -0.0431    0.0745 H   0  0  0  0  0  0  0  0  0  0  0  0
   19.2363   -2.6099   -0.1957 H   0  0  0  0  0  0  0  0  0  0  0  0
   21.1359   -4.5222   -0.3201 H   0  0  0  0  0  0  0  0  0  0  0  0
   26.3682   -4.5099   -0.1635 H   0  0  0  0  0  0  0  0  0  0  0  0
   28.2538   -2.5860   -0.0529 H   0  0  0  0  0  0  0  0  0  0  0  0
   28.2218    2.6070   -0.1054 H   0  0  0  0  0  0  0  0  0  0  0  0
   26.3141    4.5114   -0.0236 H   0  0  0  0  0  0  0  0  0  0  0  0
   22.6703    5.1415   -1.6292 H   0  0  0  0  0  0  0  0  0  0  0  0
   22.6444    7.6075   -1.5058 H   0  0  0  0  0  0  0  0  0  0  0  0
   23.6704    8.7642    0.4272 H   0  0  0  0  0  0  0  0  0  0  0  0
   24.7182    7.4420    2.2384 H   0  0  0  0  0  0  0  0  0  0  0  0
   24.7352    4.9756    2.1199 H   0  0  0  0  0  0  0  0  0  0  0  0
   21.0980    4.4538    0.4662 H   0  0  0  0  0  0  0  0  0  0  0  0
   19.2171    2.5201    0.3879 H   0  0  0  0  0  0  0  0  0  0  0  0
   22.9592   -4.9951   -2.2535 H   0  0  0  0  0  0  0  0  0  0  0  0
   22.9628   -7.4617   -2.3700 H   0  0  0  0  0  0  0  0  0  0  0  0
   23.7709   -8.7938   -0.4467 H   0  0  0  0  0  0  0  0  0  0  0  0
   24.5696   -7.6469    1.5964 H   0  0  0  0  0  0  0  0  0  0  0  0
   24.5548   -5.1806    1.7173 H   0  0  0  0  0  0  0  0  0  0  0  0
   60.9006    0.0487    0.0239 Ni  0  0  0  0  0  0  0  0  0  0  0  0
   64.2983    0.0584    0.0743 C   0  0  0  0  0  0  0  0  0  0  0  0
   63.6496    1.2725   -0.0080 C   0  0  0  0  0  0  0  0  0  0  0  0
   64.3348    2.5276   -0.0605 C   0  0  0  0  0  0  0  0  0  0  0  0
   63.3822    3.4881   -0.0930 C   0  0  0  0  0  0  0  0  0  0  0  0
   62.1152    2.8177   -0.0653 C   0  0  0  0  0  0  0  0  0  0  0  0
   62.2896    1.4571   -0.0172 N   0  0  0  0  0  0  0  0  0  0  0  0
   60.8957    3.4800   -0.0266 C   0  0  0  0  0  0  0  0  0  0  0  0
   59.6797    2.8152    0.0395 C   0  0  0  0  0  0  0  0  0  0  0  0
   58.4142    3.4840    0.0637 C   0  0  0  0  0  0  0  0  0  0  0  0
   57.4628    2.5207    0.0846 C   0  0  0  0  0  0  0  0  0  0  0  0
   59.5033    1.4491    0.0396 N   0  0  0  0  0  0  0  0  0  0  0  0
   58.1480    1.2677    0.0622 C   0  0  0  0  0  0  0  0  0  0  0  0
   57.4817    0.0396    0.0226 C   0  0  0  0  0  0  0  0  0  0  0  0
   58.1548   -1.1843   -0.0269 C   0  0  0  0  0  0  0  0  0  0  0  0
   57.4778   -2.4392   -0.1091 C   0  0  0  0  0  0  0  0  0  0  0  0
   58.4350   -3.3973   -0.1157 C   0  0  0  0  0  0  0  0  0  0  0  0
   59.6947   -2.7236   -0.0249 C   0  0  0  0  0  0  0  0  0  0  0  0
   60.9141   -3.3833    0.0295 C   0  0  0  0  0  0  0  0  0  0  0  0
   60.9209   -4.8675    0.0252 C   0  0  0  0  0  0  0  0  0  0  0  0
   61.4915   -5.5668   -1.0386 C   0  0  0  0  0  0  0  0  0  0  0  0
   61.4949   -6.9537   -1.0430 C   0  0  0  0  0  0  0  0  0  0  0  0
   60.9355   -7.6565    0.0154 C   0  0  0  0  0  0  0  0  0  0  0  0
   60.3694   -6.9669    1.0790 C   0  0  0  0  0  0  0  0  0  0  0  0
   60.3585   -5.5801    1.0845 C   0  0  0  0  0  0  0  0  0  0  0  0
   62.1292   -2.7146    0.0927 C   0  0  0  0  0  0  0  0  0  0  0  0
   63.3961   -3.3770    0.2000 C   0  0  0  0  0  0  0  0  0  0  0  0
   64.3435   -2.4107    0.2152 C   0  0  0  0  0  0  0  0  0  0  0  0
   63.6544   -1.1599    0.1234 C   0  0  0  0  0  0  0  0  0  0  0  0
   62.2967   -1.3527    0.0663 N   0  0  0  0  0  0  0  0  0  0  0  0
   59.5107   -1.3589    0.0078 N   0  0  0  0  0  0  0  0  0  0  0  0
   60.8947    4.9646   -0.0466 C   0  0  0  0  0  0  0  0  0  0  0  0
   61.3340    5.6558   -1.1757 C   0  0  0  0  0  0  0  0  0  0  0  0
   61.3327    7.0427   -1.1915 C   0  0  0  0  0  0  0  0  0  0  0  0
   60.8988    7.7531   -0.0805 C   0  0  0  0  0  0  0  0  0  0  0  0
   60.4628    7.0713    1.0474 C   0  0  0  0  0  0  0  0  0  0  0  0
   60.4578    5.6845    1.0654 C   0  0  0  0  0  0  0  0  0  0  0  0
   65.3818    0.0621    0.1007 H   0  0  0  0  0  0  0  0  0  0  0  0
   65.4075    2.6382   -0.0637 H   0  0  0  0  0  0  0  0  0  0  0  0
   63.5116    4.5578   -0.1207 H   0  0  0  0  0  0  0  0  0  0  0  0
   58.2819    4.5535    0.0543 H   0  0  0  0  0  0  0  0  0  0  0  0
   56.3907    2.6318    0.1028 H   0  0  0  0  0  0  0  0  0  0  0  0
   56.4073   -2.5552   -0.1599 H   0  0  0  0  0  0  0  0  0  0  0  0
   58.3105   -4.4657   -0.1816 H   0  0  0  0  0  0  0  0  0  0  0  0
   61.9201   -5.0184   -1.8700 H   0  0  0  0  0  0  0  0  0  0  0  0
   61.9359   -7.4878   -1.8773 H   0  0  0  0  0  0  0  0  0  0  0  0
   60.9408   -8.7405    0.0114 H   0  0  0  0  0  0  0  0  0  0  0  0
   59.9341   -7.5115    1.9096 H   0  0  0  0  0  0  0  0  0  0  0  0
   59.9250   -5.0421    1.9202 H   0  0  0  0  0  0  0  0  0  0  0  0
   63.5283   -4.4449    0.2628 H   0  0  0  0  0  0  0  0  0  0  0  0
   65.4147   -2.5143    0.2838 H   0  0  0  0  0  0  0  0  0  0  0  0
   61.6640    5.1015   -2.0472 H   0  0  0  0  0  0  0  0  0  0  0  0
   61.6715    7.5709   -2.0758 H   0  0  0  0  0  0  0  0  0  0  0  0
   60.9008    8.8371   -0.0936 H   0  0  0  0  0  0  0  0  0  0  0  0
   60.1262    7.6218    1.9188 H   0  0  0  0  0  0  0  0  0  0  0  0
   60.1269    5.1525    1.9504 H   0  0  0  0  0  0  0  0  0  0  0  0
   28.5600    0.0113   -0.0246 C   0  0  0  0  0  0  0  0  0  0  0  0
   29.7844    0.0139   -0.0200 C   0  0  0  0  0  0  0  0  0  0  0  0
   31.1274    0.0205   -0.0083 C   0  0  0  0  0  0  0  0  0  0  0  0
   32.3579    0.0292    0.0005 C   0  0  0  0  0  0  0  0  0  0  0  0
   33.6961    0.0321    0.0150 C   0  0  0  0  0  0  0  0  0  0  0  0
   34.9267    0.0385    0.0260 C   0  0  0  0  0  0  0  0  0  0  0  0
   36.2695    0.0425    0.0361 C   0  0  0  0  0  0  0  0  0  0  0  0
   37.4941    0.0451    0.0445 C   0  0  0  0  0  0  0  0  0  0  0  0
   47.1424   -0.0019    0.0114 C   0  0  0  0  0  0  0  0  0  0  0  0
   48.3670   -0.0032    0.0125 C   0  0  0  0  0  0  0  0  0  0  0  0
   49.7099   -0.0012    0.0135 C   0  0  0  0  0  0  0  0  0  0  0  0
   50.9406    0.0034    0.0167 C   0  0  0  0  0  0  0  0  0  0  0  0
   52.2789    0.0105    0.0193 C   0  0  0  0  0  0  0  0  0  0  0  0
   53.5094    0.0191    0.0209 C   0  0  0  0  0  0  0  0  0  0  0  0
   54.8525    0.0280    0.0208 C   0  0  0  0  0  0  0  0  0  0  0  0
   56.0768    0.0352    0.0208 C   0  0  0  0  0  0  0  0  0  0  0  0
   42.3182    0.0230    0.0295 Ni  0  0  0  0  0  0  0  0  0  0  0  0
   38.8980    0.0405    0.0460 C   0  0  0  0  0  0  0  0  0  0  0  0
   39.5656   -1.1822    0.1680 C   0  0  0  0  0  0  0  0  0  0  0  0
   38.8885   -2.4283    0.3339 C   0  0  0  0  0  0  0  0  0  0  0  0
   39.8394   -3.3933    0.3100 C   0  0  0  0  0  0  0  0  0  0  0  0
   41.0938   -2.7319    0.1206 C   0  0  0  0  0  0  0  0  0  0  0  0
   40.9169   -1.3674    0.0709 N   0  0  0  0  0  0  0  0  0  0  0  0
   42.3000   -3.3986   -0.0425 C   0  0  0  0  0  0  0  0  0  0  0  0
   43.5138   -2.7391   -0.1770 C   0  0  0  0  0  0  0  0  0  0  0  0
   44.7613   -3.4057   -0.3926 C   0  0  0  0  0  0  0  0  0  0  0  0
   45.7226   -2.4507   -0.3753 C   0  0  0  0  0  0  0  0  0  0  0  0
   43.7052   -1.3799   -0.0700 N   0  0  0  0  0  0  0  0  0  0  0  0
   45.0586   -1.2054   -0.1583 C   0  0  0  0  0  0  0  0  0  0  0  0
   45.7385    0.0044    0.0136 C   0  0  0  0  0  0  0  0  0  0  0  0
   45.0724    1.2214    0.1888 C   0  0  0  0  0  0  0  0  0  0  0  0
   45.7519    2.4596    0.3979 C   0  0  0  0  0  0  0  0  0  0  0  0
   44.8014    3.4250    0.4229 C   0  0  0  0  0  0  0  0  0  0  0  0
   43.5445    2.7721    0.2200 C   0  0  0  0  0  0  0  0  0  0  0  0
   42.3363    3.4450    0.1006 C   0  0  0  0  0  0  0  0  0  0  0  0
   42.3454    4.9282    0.1331 C   0  0  0  0  0  0  0  0  0  0  0  0
   41.6956    5.6156    1.1586 C   0  0  0  0  0  0  0  0  0  0  0  0
   41.7113    7.0019    1.1914 C   0  0  0  0  0  0  0  0  0  0  0  0
   42.3680    7.7163    0.1987 C   0  0  0  0  0  0  0  0  0  0  0  0
   43.0128    7.0389   -0.8272 C   0  0  0  0  0  0  0  0  0  0  0  0
   43.0059    5.6525   -0.8597 C   0  0  0  0  0  0  0  0  0  0  0  0
   41.1207    2.7911   -0.0461 C   0  0  0  0  0  0  0  0  0  0  0  0
   39.8708    3.4654   -0.2203 C   0  0  0  0  0  0  0  0  0  0  0  0
   38.9100    2.5100   -0.2348 C   0  0  0  0  0  0  0  0  0  0  0  0
   39.5763    1.2569   -0.0782 C   0  0  0  0  0  0  0  0  0  0  0  0
   40.9305    1.4285    0.0048 N   0  0  0  0  0  0  0  0  0  0  0  0
   43.7202    1.4108    0.1125 N   0  0  0  0  0  0  0  0  0  0  0  0
   42.2908   -4.8822   -0.0727 C   0  0  0  0  0  0  0  0  0  0  0  0
   41.6337   -5.5633   -1.0976 C   0  0  0  0  0  0  0  0  0  0  0  0
   41.6274   -6.9498   -1.1244 C   0  0  0  0  0  0  0  0  0  0  0  0
   42.2686   -7.6701   -0.1258 C   0  0  0  0  0  0  0  0  0  0  0  0
   42.9214   -6.9986    0.8989 C   0  0  0  0  0  0  0  0  0  0  0  0
   42.9373   -5.6121    0.9249 C   0  0  0  0  0  0  0  0  0  0  0  0
   37.8222   -2.5348    0.4514 H   0  0  0  0  0  0  0  0  0  0  0  0
   39.7137   -4.4588    0.4128 H   0  0  0  0  0  0  0  0  0  0  0  0
   44.8754   -4.4672   -0.5395 H   0  0  0  0  0  0  0  0  0  0  0  0
   46.7879   -2.5636   -0.4956 H   0  0  0  0  0  0  0  0  0  0  0  0
   46.8194    2.5613    0.5080 H   0  0  0  0  0  0  0  0  0  0  0  0
   44.9293    4.4852    0.5682 H   0  0  0  0  0  0  0  0  0  0  0  0
   41.1911    5.0579    1.9397 H   0  0  0  0  0  0  0  0  0  0  0  0
   41.2090    7.5266    1.9965 H   0  0  0  0  0  0  0  0  0  0  0  0
   42.3774    8.8001    0.2246 H   0  0  0  0  0  0  0  0  0  0  0  0
   43.5240    7.5926   -1.6068 H   0  0  0  0  0  0  0  0  0  0  0  0
   43.5018    5.1241   -1.6663 H   0  0  0  0  0  0  0  0  0  0  0  0
   39.7544    4.5321   -0.3209 H   0  0  0  0  0  0  0  0  0  0  0  0
   37.8435    2.6273   -0.3392 H   0  0  0  0  0  0  0  0  0  0  0  0
   41.1397   -5.0009   -1.8820 H   0  0  0  0  0  0  0  0  0  0  0  0
   41.1196   -7.4700   -1.9289 H   0  0  0  0  0  0  0  0  0  0  0  0
   42.2594   -8.7540   -0.1461 H   0  0  0  0  0  0  0  0  0  0  0  0
   43.4204   -7.5570    1.6830 H   0  0  0  0  0  0  0  0  0  0  0  0
   43.4397   -5.0879    1.7301 H   0  0  0  0  0  0  0  0  0  0  0  0
  2  3  4  0  0  0  0
  3  4  4  0  0  0  0
  4  5  2  0  0  0  0
  5  6  4  0  0  0  0
  1  7  1  0  0  0  0
  3  7  4  0  0  0  0
  6  7  4  0  0  0  0
  6  8  4  0  0  0  0
  8  9  4  0  0  0  0
  9 10  4  0  0  0  0
 10 11  2  0  0  0  0
  1 12  1  0  0  0  0
  9 12  4  0  0  0  0
 11 13  4  0  0  0  0
 12 13  4  0  0  0  0
 13 14  4  0  0  0  0
 14 15  4  0  0  0  0
 15 16  4  0  0  0  0
 16 17  2  0  0  0  0
 17 18  4  0  0  0  0
 18 19  4  0  0  0  0
 19 20  1  0  0  0  0
 20 21  4  0  0  0  0
 21 22  4  0  0  0  0
 22 23  4  0  0  0  0
 23 24  4  0  0  0  0
 20 25  4  0  0  0  0
 24 25  4  0  0  0  0
 19 26  4  0  0  0  0
 26 27  4  0  0  0  0
 27 28  2  0  0  0  0
  2 29  4  0  0  0  0
 28 29  4  0  0  0  0
  1 30  1  0  0  0  0
 26 30  4  0  0  0  0
 29 30  4  0  0  0  0
  1 31  1  0  0  0  0
 15 31  4  0  0  0  0
 18 31  4  0  0  0  0
  8 32  1  0  0  0  0
 32 33  4  0  0  0  0
 33 34  4  0  0  0  0
 34 35  4  0  0  0  0
 35 36  4  0  0  0  0
 32 37  4  0  0  0  0
 36 37  4  0  0  0  0
  2 38  1  0  0  0  0
  4 39  1  0  0  0  0
  5 40  1  0  0  0  0
 10 41  1  0  0  0  0
 11 42  1  0  0  0  0
 16 43  1  0  0  0  0
 17 44  1  0  0  0  0
 21 45  1  0  0  0  0
 22 46  1  0  0  0  0
 23 47  1  0  0  0  0
 24 48  1  0  0  0  0
 25 49  1  0  0  0  0
 27 50  1  0  0  0  0
 28 51  1  0  0  0  0
 33 52  1  0  0  0  0
 34 53  1  0  0  0  0
 35 54  1  0  0  0  0
 36 55  1  0  0  0  0
 37 56  1  0  0  0  0
 58 59  4  0  0  0  0
 59 60  4  0  0  0  0
 60 61  2  0  0  0  0
 61 62  4  0  0  0  0
 57 63  1  0  0  0  0
 59 63  4  0  0  0  0
 62 63  4  0  0  0  0
 62 64  4  0  0  0  0
 64 65  4  0  0  0  0
 65 66  4  0  0  0  0
 66 67  2  0  0  0  0
 57 68  1  0  0  0  0
 65 68  4  0  0  0  0
 67 69  4  0  0  0  0
 68 69  4  0  0  0  0
 69 70  4  0  0  0  0
 70 71  4  0  0  0  0
 71 72  4  0  0  0  0
 72 73  2  0  0  0  0
 73 74  4  0  0  0  0
 74 75  4  0  0  0  0
 75 76  1  0  0  0  0
 76 77  4  0  0  0  0
 77 78  4  0  0  0  0
 78 79  4  0  0  0  0
 79 80  4  0  0  0  0
 76 81  4  0  0  0  0
 80 81  4  0  0  0  0
 75 82  4  0  0  0  0
 82 83  4  0  0  0  0
 83 84  2  0  0  0  0
 58 85  4  0  0  0  0
 84 85  4  0  0  0  0
 57 86  1  0  0  0  0
 82 86  4  0  0  0  0
 85 86  4  0  0  0  0
 57 87  1  0  0  0  0
 71 87  4  0  0  0  0
 74 87  4  0  0  0  0
 64 88  1  0  0  0  0
 88 89  4  0  0  0  0
 89 90  4  0  0  0  0
 90 91  4  0  0  0  0
 91 92  4  0  0  0  0
 88 93  4  0  0  0  0
 92 93  4  0  0  0  0
 58 94  1  0  0  0  0
 60 95  1  0  0  0  0
 61 96  1  0  0  0  0
 66 97  1  0  0  0  0
 67 98  1  0  0  0  0
 72 99  1  0  0  0  0
 73100  1  0  0  0  0
 77101  1  0  0  0  0
 78102  1  0  0  0  0
 79103  1  0  0  0  0
 80104  1  0  0  0  0
 81105  1  0  0  0  0
 83106  1  0  0  0  0
 84107  1  0  0  0  0
 89108  1  0  0  0  0
 90109  1  0  0  0  0
 91110  1  0  0  0  0
 92111  1  0  0  0  0
 93112  1  0  0  0  0
 14113  4  0  0  0  0
113114  3  0  0  0  0
114115  4  0  0  0  0
115116  3  0  0  0  0
116117  4  0  0  0  0
117118  3  0  0  0  0
118119  4  0  0  0  0
119120  3  0  0  0  0
121122  3  0  0  0  0
122123  4  0  0  0  0
123124  3  0  0  0  0
124125  4  0  0  0  0
125126  3  0  0  0  0
126127  4  0  0  0  0
 70128  4  0  0  0  0
127128  3  0  0  0  0
120130  4  0  0  0  0
130131  4  0  0  0  0
131132  4  0  0  0  0
132133  2  0  0  0  0
133134  4  0  0  0  0
129135  1  0  0  0  0
131135  4  0  0  0  0
134135  4  0  0  0  0
134136  4  0  0  0  0
136137  4  0  0  0  0
137138  4  0  0  0  0
138139  2  0  0  0  0
129140  1  0  0  0  0
137140  4  0  0  0  0
139141  4  0  0  0  0
140141  4  0  0  0  0
121142  4  0  0  0  0
141142  4  0  0  0  0
142143  4  0  0  0  0
143144  4  0  0  0  0
144145  2  0  0  0  0
145146  4  0  0  0  0
146147  4  0  0  0  0
147148  1  0  0  0  0
148149  4  0  0  0  0
149150  4  0  0  0  0
150151  4  0  0  0  0
151152  4  0  0  0  0
148153  4  0  0  0  0
152153  4  0  0  0  0
147154  4  0  0  0  0
154155  4  0  0  0  0
155156  2  0  0  0  0
130157  4  0  0  0  0
156157  4  0  0  0  0
129158  1  0  0  0  0
154158  4  0  0  0  0
157158  4  0  0  0  0
129159  1  0  0  0  0
143159  4  0  0  0  0
146159  4  0  0  0  0
136160  1  0  0  0  0
160161  4  0  0  0  0
161162  4  0  0  0  0
162163  4  0  0  0  0
163164  4  0  0  0  0
160165  4  0  0  0  0
164165  4  0  0  0  0
132166  1  0  0  0  0
133167  1  0  0  0  0
138168  1  0  0  0  0
139169  1  0  0  0  0
144170  1  0  0  0  0
145171  1  0  0  0  0
149172  1  0  0  0  0
150173  1  0  0  0  0
151174  1  0  0  0  0
152175  1  0  0  0  0
153176  1  0  0  0  0
155177  1  0  0  0  0
156178  1  0  0  0  0
161179  1  0  0  0  0
162180  1  0  0  0  0
163181  1  0  0  0  0
164182  1  0  0  0  0
165183  1  0  0  0  0
M  END
