 xtb: 6.5.1 (b24c23e)
          07292214043D

174194  0     0  0            999 V2000
   27.8079   -0.1070    0.0183 C   0  0  0  0  0  0  0  0  0  0  0  0
   28.4206   -1.2622    0.4863 C   0  0  0  0  0  0  0  0  0  0  0  0
   27.7730   -2.4506    0.9268 C   0  0  0  0  0  0  0  0  0  0  0  0
   28.7382   -3.3419    1.3025 C   0  0  0  0  0  0  0  0  0  0  0  0
   30.0069   -2.7229    1.1134 C   0  0  0  0  0  0  0  0  0  0  0  0
   29.7643   -1.4750    0.6128 N   0  0  0  0  0  0  0  0  0  0  0  0
   31.2711   -3.2682    1.3620 C   0  0  0  0  0  0  0  0  0  0  0  0
   32.4849   -2.6196    1.1219 C   0  0  0  0  0  0  0  0  0  0  0  0
   33.7824   -3.1837    1.4482 C   0  0  0  0  0  0  0  0  0  0  0  0
   34.7012   -2.2670    1.0801 C   0  0  0  0  0  0  0  0  0  0  0  0
   32.6371   -1.3787    0.5836 N   0  0  0  0  0  0  0  0  0  0  0  0
   33.9644   -1.1418    0.5374 C   0  0  0  0  0  0  0  0  0  0  0  0
   34.5968    0.0209    0.0564 C   0  0  0  0  0  0  0  0  0  0  0  0
   33.9601    1.1741   -0.4366 C   0  0  0  0  0  0  0  0  0  0  0  0
   34.6017    2.3256   -0.9656 C   0  0  0  0  0  0  0  0  0  0  0  0
   33.6325    3.2064   -1.3591 C   0  0  0  0  0  0  0  0  0  0  0  0
   32.3672    2.6226   -1.0736 C   0  0  0  0  0  0  0  0  0  0  0  0
   31.1035    3.1662   -1.3278 C   0  0  0  0  0  0  0  0  0  0  0  0
   31.0670    4.5209   -1.9313 C   0  0  0  0  0  0  0  0  0  0  0  0
   30.4848    4.7175   -3.1845 C   0  0  0  0  0  0  0  0  0  0  0  0
   30.4550    5.9816   -3.7536 C   0  0  0  0  0  0  0  0  0  0  0  0
   31.0007    7.0646   -3.0777 C   0  0  0  0  0  0  0  0  0  0  0  0
   31.5790    6.8779   -1.8295 C   0  0  0  0  0  0  0  0  0  0  0  0
   31.6154    5.6142   -1.2594 C   0  0  0  0  0  0  0  0  0  0  0  0
   29.8890    2.5262   -1.0607 C   0  0  0  0  0  0  0  0  0  0  0  0
   28.5829    3.1302   -1.2737 C   0  0  0  0  0  0  0  0  0  0  0  0
   27.6709    2.2129   -0.8935 C   0  0  0  0  0  0  0  0  0  0  0  0
   28.4185    1.0522   -0.4425 C   0  0  0  0  0  0  0  0  0  0  0  0
   29.7504    1.2798   -0.5492 N   0  0  0  0  0  0  0  0  0  0  0  0
   32.6173    1.3941   -0.5216 N   0  0  0  0  0  0  0  0  0  0  0  0
   31.3061   -4.6400    1.9269 C   0  0  0  0  0  0  0  0  0  0  0  0
   30.7282   -4.9099    3.1681 C   0  0  0  0  0  0  0  0  0  0  0  0
   30.7631   -6.1927    3.6939 C   0  0  0  0  0  0  0  0  0  0  0  0
   31.3693   -7.2213    2.9857 C   0  0  0  0  0  0  0  0  0  0  0  0
   31.9442   -6.9614    1.7490 C   0  0  0  0  0  0  0  0  0  0  0  0
   31.9157   -5.6790    1.2222 C   0  0  0  0  0  0  0  0  0  0  0  0
   26.7227   -0.1218    0.0129 H   0  0  0  0  0  0  0  0  0  0  0  0
   26.7044   -2.5945    0.9426 H   0  0  0  0  0  0  0  0  0  0  0  0
   28.5910   -4.3443    1.6708 H   0  0  0  0  0  0  0  0  0  0  0  0
   30.4871   -0.8076    0.3652 H   0  0  0  0  0  0  0  0  0  0  0  0
   33.9457   -4.1435    1.9109 H   0  0  0  0  0  0  0  0  0  0  0  0
   35.7743   -2.3188    1.1704 H   0  0  0  0  0  0  0  0  0  0  0  0
   35.6697    2.4508   -1.0427 H   0  0  0  0  0  0  0  0  0  0  0  0
   33.7781    4.1708   -1.8177 H   0  0  0  0  0  0  0  0  0  0  0  0
   30.0698    3.8704   -3.7193 H   0  0  0  0  0  0  0  0  0  0  0  0
   30.0049    6.1214   -4.7302 H   0  0  0  0  0  0  0  0  0  0  0  0
   30.9752    8.0527   -3.5231 H   0  0  0  0  0  0  0  0  0  0  0  0
   32.0031    7.7212   -1.2957 H   0  0  0  0  0  0  0  0  0  0  0  0
   32.0550    5.4734   -0.2781 H   0  0  0  0  0  0  0  0  0  0  0  0
   28.4128    4.1264   -1.6493 H   0  0  0  0  0  0  0  0  0  0  0  0
   26.5947    2.2873   -0.8998 H   0  0  0  0  0  0  0  0  0  0  0  0
   31.8967    0.7387   -0.2372 H   0  0  0  0  0  0  0  0  0  0  0  0
   30.2667   -4.1051    3.7296 H   0  0  0  0  0  0  0  0  0  0  0  0
   30.3160   -6.3895    4.6621 H   0  0  0  0  0  0  0  0  0  0  0  0
   31.3942   -8.2240    3.3972 H   0  0  0  0  0  0  0  0  0  0  0  0
   32.4166   -7.7619    1.1906 H   0  0  0  0  0  0  0  0  0  0  0  0
   32.3544   -5.4800    0.2508 H   0  0  0  0  0  0  0  0  0  0  0  0
   56.3211    0.0124    0.0028 C   0  0  0  0  0  0  0  0  0  0  0  0
   55.7366    1.0726   -0.6779 C   0  0  0  0  0  0  0  0  0  0  0  0
   56.4119    2.1100   -1.3804 C   0  0  0  0  0  0  0  0  0  0  0  0
   55.4681    2.9466   -1.9060 C   0  0  0  0  0  0  0  0  0  0  0  0
   54.1853    2.4553   -1.5294 C   0  0  0  0  0  0  0  0  0  0  0  0
   54.3985    1.3200   -0.7998 N   0  0  0  0  0  0  0  0  0  0  0  0
   52.9343    2.9995   -1.8385 C   0  0  0  0  0  0  0  0  0  0  0  0
   51.7063    2.4569   -1.4514 C   0  0  0  0  0  0  0  0  0  0  0  0
   50.4251    3.0861   -1.7173 C   0  0  0  0  0  0  0  0  0  0  0  0
   49.4841    2.2712   -1.1973 C   0  0  0  0  0  0  0  0  0  0  0  0
   51.5231    1.2944   -0.7682 N   0  0  0  0  0  0  0  0  0  0  0  0
   50.1907    1.1482   -0.6120 C   0  0  0  0  0  0  0  0  0  0  0  0
   49.5290    0.0577   -0.0161 C   0  0  0  0  0  0  0  0  0  0  0  0
   50.1382   -1.0661    0.5710 C   0  0  0  0  0  0  0  0  0  0  0  0
   49.4709   -2.1813    1.1436 C   0  0  0  0  0  0  0  0  0  0  0  0
   50.4191   -3.0381    1.6299 C   0  0  0  0  0  0  0  0  0  0  0  0
   51.6969   -2.4647    1.3813 C   0  0  0  0  0  0  0  0  0  0  0  0
   52.9464   -2.9948    1.7205 C   0  0  0  0  0  0  0  0  0  0  0  0
   52.9489   -4.2816    2.4583 C   0  0  0  0  0  0  0  0  0  0  0  0
   53.5666   -5.4077    1.9119 C   0  0  0  0  0  0  0  0  0  0  0  0
   53.5654   -6.6117    2.5999 C   0  0  0  0  0  0  0  0  0  0  0  0
   52.9522   -6.7058    3.8419 C   0  0  0  0  0  0  0  0  0  0  0  0
   52.3381   -5.5897    4.3937 C   0  0  0  0  0  0  0  0  0  0  0  0
   52.3334   -4.3850    3.7068 C   0  0  0  0  0  0  0  0  0  0  0  0
   54.1758   -2.4000    1.4191 C   0  0  0  0  0  0  0  0  0  0  0  0
   55.4649   -2.9295    1.8364 C   0  0  0  0  0  0  0  0  0  0  0  0
   56.3990   -2.0845    1.3556 C   0  0  0  0  0  0  0  0  0  0  0  0
   55.6817   -1.0354    0.6527 C   0  0  0  0  0  0  0  0  0  0  0  0
   54.3454   -1.2517    0.7213 N   0  0  0  0  0  0  0  0  0  0  0  0
   51.4754   -1.2809    0.7288 N   0  0  0  0  0  0  0  0  0  0  0  0
   52.9288    4.2472   -2.6421 C   0  0  0  0  0  0  0  0  0  0  0  0
   53.5271    5.4105   -2.1563 C   0  0  0  0  0  0  0  0  0  0  0  0
   53.5219    6.5711   -2.9157 C   0  0  0  0  0  0  0  0  0  0  0  0
   52.9257    6.5828   -4.1693 C   0  0  0  0  0  0  0  0  0  0  0  0
   52.3297    5.4290   -4.6601 C   0  0  0  0  0  0  0  0  0  0  0  0
   52.3279    4.2683   -3.9016 C   0  0  0  0  0  0  0  0  0  0  0  0
   57.4063    0.0062    0.0177 H   0  0  0  0  0  0  0  0  0  0  0  0
   57.4835    2.1895   -1.4713 H   0  0  0  0  0  0  0  0  0  0  0  0
   55.6390    3.8245   -2.5077 H   0  0  0  0  0  0  0  0  0  0  0  0
   53.6602    0.7432   -0.4106 H   0  0  0  0  0  0  0  0  0  0  0  0
   50.2876    4.0293   -2.2208 H   0  0  0  0  0  0  0  0  0  0  0  0
   48.4132    2.3961   -1.1980 H   0  0  0  0  0  0  0  0  0  0  0  0
   48.4006   -2.3060    1.1746 H   0  0  0  0  0  0  0  0  0  0  0  0
   50.2511   -3.9870    2.1125 H   0  0  0  0  0  0  0  0  0  0  0  0
   54.0339   -5.3397    0.9358 H   0  0  0  0  0  0  0  0  0  0  0  0
   54.0441   -7.4811    2.1632 H   0  0  0  0  0  0  0  0  0  0  0  0
   52.9533   -7.6474    4.3792 H   0  0  0  0  0  0  0  0  0  0  0  0
   51.8613   -5.6566    5.3653 H   0  0  0  0  0  0  0  0  0  0  0  0
   51.8664   -3.5109    4.1470 H   0  0  0  0  0  0  0  0  0  0  0  0
   55.6094   -3.8191    2.4282 H   0  0  0  0  0  0  0  0  0  0  0  0
   57.4719   -2.1354    1.4561 H   0  0  0  0  0  0  0  0  0  0  0  0
   52.2106   -0.6577    0.4113 H   0  0  0  0  0  0  0  0  0  0  0  0
   53.9811    5.4076   -1.1716 H   0  0  0  0  0  0  0  0  0  0  0  0
   53.9848    7.4709   -2.5259 H   0  0  0  0  0  0  0  0  0  0  0  0
   52.9253    7.4900   -4.7629 H   0  0  0  0  0  0  0  0  0  0  0  0
   51.8648    5.4322   -5.6398 H   0  0  0  0  0  0  0  0  0  0  0  0
   51.8723    3.3646   -4.2908 H   0  0  0  0  0  0  0  0  0  0  0  0
   36.0072    0.0425    0.0580 C   0  0  0  0  0  0  0  0  0  0  0  0
   37.2235    0.0535    0.0478 C   0  0  0  0  0  0  0  0  0  0  0  0
   46.9015    0.0756    0.0006 C   0  0  0  0  0  0  0  0  0  0  0  0
   48.1179    0.0725   -0.0093 C   0  0  0  0  0  0  0  0  0  0  0  0
   38.6334    0.0589    0.0411 C   0  0  0  0  0  0  0  0  0  0  0  0
   39.2542    1.2972    0.2854 C   0  0  0  0  0  0  0  0  0  0  0  0
   38.6023    2.5200    0.5921 C   0  0  0  0  0  0  0  0  0  0  0  0
   39.5639    3.4749    0.7794 C   0  0  0  0  0  0  0  0  0  0  0  0
   40.8325    2.8644    0.5820 C   0  0  0  0  0  0  0  0  0  0  0  0
   40.5944    1.5475    0.2918 N   0  0  0  0  0  0  0  0  0  0  0  0
   42.0903    3.4704    0.6827 C   0  0  0  0  0  0  0  0  0  0  0  0
   43.3168    2.8249    0.5152 C   0  0  0  0  0  0  0  0  0  0  0  0
   44.5991    3.5048    0.5599 C   0  0  0  0  0  0  0  0  0  0  0  0
   45.5405    2.5586    0.3644 C   0  0  0  0  0  0  0  0  0  0  0  0
   43.4997    1.4975    0.2774 N   0  0  0  0  0  0  0  0  0  0  0  0
   44.8330    1.3049    0.1944 C   0  0  0  0  0  0  0  0  0  0  0  0
   45.4910    0.0748    0.0078 C   0  0  0  0  0  0  0  0  0  0  0  0
   44.8692   -1.1743   -0.1730 C   0  0  0  0  0  0  0  0  0  0  0  0
   45.5209   -2.4213   -0.3590 C   0  0  0  0  0  0  0  0  0  0  0  0
   44.5592   -3.3774   -0.5392 C   0  0  0  0  0  0  0  0  0  0  0  0
   43.2904   -2.7395   -0.4776 C   0  0  0  0  0  0  0  0  0  0  0  0
   42.0338   -3.3408   -0.6156 C   0  0  0  0  0  0  0  0  0  0  0  0
   42.0279   -4.7948   -0.9163 C   0  0  0  0  0  0  0  0  0  0  0  0
   42.5981   -5.2722   -2.0973 C   0  0  0  0  0  0  0  0  0  0  0  0
   42.5883   -6.6293   -2.3822 C   0  0  0  0  0  0  0  0  0  0  0  0
   42.0157   -7.5256   -1.4901 C   0  0  0  0  0  0  0  0  0  0  0  0
   41.4496   -7.0587   -0.3115 C   0  0  0  0  0  0  0  0  0  0  0  0
   41.4525   -5.7016   -0.0257 C   0  0  0  0  0  0  0  0  0  0  0  0
   40.8061   -2.6868   -0.5035 C   0  0  0  0  0  0  0  0  0  0  0  0
   39.5226   -3.3356   -0.7037 C   0  0  0  0  0  0  0  0  0  0  0  0
   38.5815   -2.3882   -0.5130 C   0  0  0  0  0  0  0  0  0  0  0  0
   39.2909   -1.1611   -0.2076 C   0  0  0  0  0  0  0  0  0  0  0  0
   40.6238   -1.3685   -0.2168 N   0  0  0  0  0  0  0  0  0  0  0  0
   43.5284   -1.4117   -0.2428 N   0  0  0  0  0  0  0  0  0  0  0  0
   42.1025    4.9191    1.0071 C   0  0  0  0  0  0  0  0  0  0  0  0
   41.5176    5.8482    0.1459 C   0  0  0  0  0  0  0  0  0  0  0  0
   41.5293    7.1991    0.4600 C   0  0  0  0  0  0  0  0  0  0  0  0
   42.1186    7.6374    1.6380 C   0  0  0  0  0  0  0  0  0  0  0  0
   42.7013    6.7189    2.5006 C   0  0  0  0  0  0  0  0  0  0  0  0
   42.6965    5.3681    2.1876 C   0  0  0  0  0  0  0  0  0  0  0  0
   37.5340    2.6428    0.6699 H   0  0  0  0  0  0  0  0  0  0  0  0
   39.4101    4.5088    1.0418 H   0  0  0  0  0  0  0  0  0  0  0  0
   41.3177    0.8564    0.1233 H   0  0  0  0  0  0  0  0  0  0  0  0
   44.7373    4.5637    0.7072 H   0  0  0  0  0  0  0  0  0  0  0  0
   46.6121    2.6736    0.3337 H   0  0  0  0  0  0  0  0  0  0  0  0
   46.5897   -2.5617   -0.3557 H   0  0  0  0  0  0  0  0  0  0  0  0
   44.7128   -4.4327   -0.6947 H   0  0  0  0  0  0  0  0  0  0  0  0
   43.0344   -4.5722   -2.8014 H   0  0  0  0  0  0  0  0  0  0  0  0
   43.0286   -6.9882   -3.3059 H   0  0  0  0  0  0  0  0  0  0  0  0
   42.0102   -8.5864   -1.7133 H   0  0  0  0  0  0  0  0  0  0  0  0
   41.0038   -7.7552    0.3899 H   0  0  0  0  0  0  0  0  0  0  0  0
   41.0200   -5.3397    0.9004 H   0  0  0  0  0  0  0  0  0  0  0  0
   39.3828   -4.3713   -0.9678 H   0  0  0  0  0  0  0  0  0  0  0  0
   37.5097   -2.4828   -0.5814 H   0  0  0  0  0  0  0  0  0  0  0  0
   42.8052   -0.7077   -0.1396 H   0  0  0  0  0  0  0  0  0  0  0  0
   41.0682    5.5098   -0.7812 H   0  0  0  0  0  0  0  0  0  0  0  0
   41.0764    7.9131   -0.2191 H   0  0  0  0  0  0  0  0  0  0  0  0
   42.1242    8.6934    1.8833 H   0  0  0  0  0  0  0  0  0  0  0  0
   43.1609    7.0556    3.4233 H   0  0  0  0  0  0  0  0  0  0  0  0
   43.1413    4.6504    2.8677 H   0  0  0  0  0  0  0  0  0  0  0  0
  1  2  4  0  0  0  0
  2  3  4  0  0  0  0
  3  4  2  0  0  0  0
  4  5  4  0  0  0  0
  2  6  4  0  0  0  0
  5  6  4  0  0  0  0
  5  7  4  0  0  0  0
  7  8  4  0  0  0  0
  8  9  1  0  0  0  0
  9 10  2  0  0  0  0
  8 11  4  0  0  0  0
 10 12  1  0  0  0  0
 11 12  4  0  0  0  0
 12 13  4  0  0  0  0
 13 14  4  0  0  0  0
 14 15  4  0  0  0  0
 15 16  2  0  0  0  0
 16 17  4  0  0  0  0
 17 18  4  0  0  0  0
 18 19  1  0  0  0  0
 19 20  4  0  0  0  0
 20 21  4  0  0  0  0
 21 22  4  0  0  0  0
 22 23  4  0  0  0  0
 19 24  4  0  0  0  0
 23 24  4  0  0  0  0
 18 25  4  0  0  0  0
 25 26  1  0  0  0  0
 26 27  2  0  0  0  0
  1 28  4  0  0  0  0
 27 28  1  0  0  0  0
 25 29  4  0  0  0  0
 28 29  4  0  0  0  0
 14 30  4  0  0  0  0
 17 30  4  0  0  0  0
  7 31  1  0  0  0  0
 31 32  4  0  0  0  0
 32 33  4  0  0  0  0
 33 34  4  0  0  0  0
 34 35  4  0  0  0  0
 31 36  4  0  0  0  0
 35 36  4  0  0  0  0
  1 37  1  0  0  0  0
  3 38  1  0  0  0  0
  4 39  1  0  0  0  0
  6 40  1  0  0  0  0
  9 41  1  0  0  0  0
 10 42  1  0  0  0  0
 15 43  1  0  0  0  0
 16 44  1  0  0  0  0
 20 45  1  0  0  0  0
 21 46  1  0  0  0  0
 22 47  1  0  0  0  0
 23 48  1  0  0  0  0
 24 49  1  0  0  0  0
 26 50  1  0  0  0  0
 27 51  1  0  0  0  0
 30 52  1  0  0  0  0
 32 53  1  0  0  0  0
 33 54  1  0  0  0  0
 34 55  1  0  0  0  0
 35 56  1  0  0  0  0
 36 57  1  0  0  0  0
 58 59  4  0  0  0  0
 59 60  4  0  0  0  0
 60 61  2  0  0  0  0
 61 62  4  0  0  0  0
 59 63  4  0  0  0  0
 62 63  4  0  0  0  0
 62 64  4  0  0  0  0
 64 65  4  0  0  0  0
 65 66  1  0  0  0  0
 66 67  2  0  0  0  0
 65 68  4  0  0  0  0
 67 69  1  0  0  0  0
 68 69  4  0  0  0  0
 69 70  4  0  0  0  0
 70 71  4  0  0  0  0
 71 72  4  0  0  0  0
 72 73  2  0  0  0  0
 73 74  4  0  0  0  0
 74 75  4  0  0  0  0
 75 76  1  0  0  0  0
 76 77  4  0  0  0  0
 77 78  4  0  0  0  0
 78 79  4  0  0  0  0
 79 80  4  0  0  0  0
 76 81  4  0  0  0  0
 80 81  4  0  0  0  0
 75 82  4  0  0  0  0
 82 83  1  0  0  0  0
 83 84  2  0  0  0  0
 58 85  4  0  0  0  0
 84 85  1  0  0  0  0
 82 86  4  0  0  0  0
 85 86  4  0  0  0  0
 71 87  4  0  0  0  0
 74 87  4  0  0  0  0
 64 88  1  0  0  0  0
 88 89  4  0  0  0  0
 89 90  4  0  0  0  0
 90 91  4  0  0  0  0
 91 92  4  0  0  0  0
 88 93  4  0  0  0  0
 92 93  4  0  0  0  0
 58 94  1  0  0  0  0
 60 95  1  0  0  0  0
 61 96  1  0  0  0  0
 63 97  1  0  0  0  0
 66 98  1  0  0  0  0
 67 99  1  0  0  0  0
 72100  1  0  0  0  0
 73101  1  0  0  0  0
 77102  1  0  0  0  0
 78103  1  0  0  0  0
 79104  1  0  0  0  0
 80105  1  0  0  0  0
 81106  1  0  0  0  0
 83107  1  0  0  0  0
 84108  1  0  0  0  0
 87109  1  0  0  0  0
 89110  1  0  0  0  0
 90111  1  0  0  0  0
 91112  1  0  0  0  0
 92113  1  0  0  0  0
 93114  1  0  0  0  0
 13115  4  0  0  0  0
115116  3  0  0  0  0
 70118  4  0  0  0  0
117118  3  0  0  0  0
116119  4  0  0  0  0
119120  4  0  0  0  0
120121  4  0  0  0  0
121122  2  0  0  0  0
122123  4  0  0  0  0
120124  4  0  0  0  0
123124  4  0  0  0  0
123125  4  0  0  0  0
125126  4  0  0  0  0
126127  1  0  0  0  0
127128  2  0  0  0  0
126129  4  0  0  0  0
128130  1  0  0  0  0
129130  4  0  0  0  0
117131  4  0  0  0  0
130131  4  0  0  0  0
131132  4  0  0  0  0
132133  4  0  0  0  0
133134  2  0  0  0  0
134135  4  0  0  0  0
135136  4  0  0  0  0
136137  1  0  0  0  0
137138  4  0  0  0  0
138139  4  0  0  0  0
139140  4  0  0  0  0
140141  4  0  0  0  0
137142  4  0  0  0  0
141142  4  0  0  0  0
136143  4  0  0  0  0
143144  1  0  0  0  0
144145  2  0  0  0  0
119146  4  0  0  0  0
145146  1  0  0  0  0
143147  4  0  0  0  0
146147  4  0  0  0  0
132148  4  0  0  0  0
135148  4  0  0  0  0
125149  1  0  0  0  0
149150  4  0  0  0  0
150151  4  0  0  0  0
151152  4  0  0  0  0
152153  4  0  0  0  0
149154  4  0  0  0  0
153154  4  0  0  0  0
121155  1  0  0  0  0
122156  1  0  0  0  0
124157  1  0  0  0  0
127158  1  0  0  0  0
128159  1  0  0  0  0
133160  1  0  0  0  0
134161  1  0  0  0  0
138162  1  0  0  0  0
139163  1  0  0  0  0
140164  1  0  0  0  0
141165  1  0  0  0  0
142166  1  0  0  0  0
144167  1  0  0  0  0
145168  1  0  0  0  0
148169  1  0  0  0  0
150170  1  0  0  0  0
151171  1  0  0  0  0
152172  1  0  0  0  0
153173  1  0  0  0  0
154174  1  0  0  0  0
M  END
