 xtb: 6.5.1 (b24c23e)
          07292222183D

 80 95  0     0  0            999 V2000
    5.2429   -0.0126   -0.0031 Co  0  0  0  0  0  0  0  0  0  0  0  0
    1.8340   -0.0588   -0.0484 C   0  0  0  0  0  0  0  0  0  0  0  0
    2.5111   -0.8998   -0.9033 C   0  0  0  0  0  0  0  0  0  0  0  0
    1.8562   -1.7963   -1.8095 C   0  0  0  0  0  0  0  0  0  0  0  0
    2.8318   -2.4540   -2.4768 C   0  0  0  0  0  0  0  0  0  0  0  0
    4.0786   -1.9574   -1.9751 C   0  0  0  0  0  0  0  0  0  0  0  0
    3.8746   -1.0025   -1.0125 N   0  0  0  0  0  0  0  0  0  0  0  0
    5.3043   -2.4030   -2.4185 C   0  0  0  0  0  0  0  0  0  0  0  0
    6.5046   -1.9346   -1.9354 C   0  0  0  0  0  0  0  0  0  0  0  0
    7.7731   -2.4104   -2.3964 C   0  0  0  0  0  0  0  0  0  0  0  0
    8.7159   -1.7311   -1.7024 C   0  0  0  0  0  0  0  0  0  0  0  0
    6.6653   -0.9697   -0.9679 N   0  0  0  0  0  0  0  0  0  0  0  0
    8.0184   -0.8432   -0.8237 C   0  0  0  0  0  0  0  0  0  0  0  0
    8.6730    0.0334    0.0434 C   0  0  0  0  0  0  0  0  0  0  0  0
    7.9738    0.8989    0.8859 C   0  0  0  0  0  0  0  0  0  0  0  0
    8.6236    1.8076    1.7794 C   0  0  0  0  0  0  0  0  0  0  0  0
    7.6446    2.4725    2.4364 C   0  0  0  0  0  0  0  0  0  0  0  0
    6.4019    1.9646    1.9405 C   0  0  0  0  0  0  0  0  0  0  0  0
    6.6144    0.9989    0.9840 N   0  0  0  0  0  0  0  0  0  0  0  0
    5.1762    2.4027    2.3874 C   0  0  0  0  0  0  0  0  0  0  0  0
    3.9756    1.9165    1.9186 C   0  0  0  0  0  0  0  0  0  0  0  0
    2.7029    2.3745    2.3914 C   0  0  0  0  0  0  0  0  0  0  0  0
    1.7634    1.6821    1.7075 C   0  0  0  0  0  0  0  0  0  0  0  0
    2.4661    0.8042    0.8191 C   0  0  0  0  0  0  0  0  0  0  0  0
    3.8230    0.9534    0.9545 N   0  0  0  0  0  0  0  0  0  0  0  0
    0.7505   -0.0757   -0.0599 H   0  0  0  0  0  0  0  0  0  0  0  0
    0.7860   -1.8919   -1.9039 H   0  0  0  0  0  0  0  0  0  0  0  0
    2.7408   -3.2100   -3.2407 H   0  0  0  0  0  0  0  0  0  0  0  0
    5.3250   -3.1664   -3.1875 H   0  0  0  0  0  0  0  0  0  0  0  0
    7.9021   -3.1674   -3.1534 H   0  0  0  0  0  0  0  0  0  0  0  0
    9.7894   -1.8076   -1.7658 H   0  0  0  0  0  0  0  0  0  0  0  0
    9.6928    1.9075    1.8762 H   0  0  0  0  0  0  0  0  0  0  0  0
    7.7330    3.2376    3.1912 H   0  0  0  0  0  0  0  0  0  0  0  0
    5.1545    3.1713    3.1512 H   0  0  0  0  0  0  0  0  0  0  0  0
    2.5713    3.1298    3.1500 H   0  0  0  0  0  0  0  0  0  0  0  0
    0.6890    1.7425    1.7793 H   0  0  0  0  0  0  0  0  0  0  0  0
   23.8436    0.0070    0.0052 Co  0  0  0  0  0  0  0  0  0  0  0  0
   27.2524    0.0752   -0.0014 C   0  0  0  0  0  0  0  0  0  0  0  0
   26.5740    1.2721   -0.0663 C   0  0  0  0  0  0  0  0  0  0  0  0
   27.2276    2.5457   -0.1330 C   0  0  0  0  0  0  0  0  0  0  0  0
   26.2510    3.4804   -0.1812 C   0  0  0  0  0  0  0  0  0  0  0  0
   25.0049    2.7741   -0.1432 C   0  0  0  0  0  0  0  0  0  0  0  0
   25.2103    1.4201   -0.0751 N   0  0  0  0  0  0  0  0  0  0  0  0
   23.7785    3.4008   -0.1702 C   0  0  0  0  0  0  0  0  0  0  0  0
   22.5789    2.7277   -0.1291 C   0  0  0  0  0  0  0  0  0  0  0  0
   21.3097    3.3883   -0.1506 C   0  0  0  0  0  0  0  0  0  0  0  0
   20.3681    2.4176   -0.0962 C   0  0  0  0  0  0  0  0  0  0  0  0
   22.4198    1.3626   -0.0637 N   0  0  0  0  0  0  0  0  0  0  0  0
   21.0670    1.1704   -0.0438 C   0  0  0  0  0  0  0  0  0  0  0  0
   20.4136   -0.0623    0.0067 C   0  0  0  0  0  0  0  0  0  0  0  0
   21.1140   -1.2687    0.0490 C   0  0  0  0  0  0  0  0  0  0  0  0
   20.4656   -2.5429    0.0992 C   0  0  0  0  0  0  0  0  0  0  0  0
   21.4457   -3.4757    0.1397 C   0  0  0  0  0  0  0  0  0  0  0  0
   22.6875   -2.7648    0.1148 C   0  0  0  0  0  0  0  0  0  0  0  0
   22.4735   -1.4071    0.0558 N   0  0  0  0  0  0  0  0  0  0  0  0
   23.9140   -3.3881    0.1515 C   0  0  0  0  0  0  0  0  0  0  0  0
   25.1138   -2.7117    0.1305 C   0  0  0  0  0  0  0  0  0  0  0  0
   26.3873   -3.3672    0.1711 C   0  0  0  0  0  0  0  0  0  0  0  0
   27.3257   -2.3939    0.1281 C   0  0  0  0  0  0  0  0  0  0  0  0
   26.6216   -1.1474    0.0614 C   0  0  0  0  0  0  0  0  0  0  0  0
   25.2649   -1.3504    0.0639 N   0  0  0  0  0  0  0  0  0  0  0  0
   28.3358    0.0966   -0.0003 H   0  0  0  0  0  0  0  0  0  0  0  0
   28.2975    2.6810   -0.1403 H   0  0  0  0  0  0  0  0  0  0  0  0
   26.3408    4.5537   -0.2365 H   0  0  0  0  0  0  0  0  0  0  0  0
   23.7565    4.4829   -0.2241 H   0  0  0  0  0  0  0  0  0  0  0  0
   21.1795    4.4575   -0.2008 H   0  0  0  0  0  0  0  0  0  0  0  0
   19.2944    2.5155   -0.0927 H   0  0  0  0  0  0  0  0  0  0  0  0
   19.3966   -2.6834    0.1026 H   0  0  0  0  0  0  0  0  0  0  0  0
   21.3585   -4.5496    0.1839 H   0  0  0  0  0  0  0  0  0  0  0  0
   23.9370   -4.4705    0.2007 H   0  0  0  0  0  0  0  0  0  0  0  0
   26.5201   -4.4361    0.2251 H   0  0  0  0  0  0  0  0  0  0  0  0
   28.4002   -2.4858    0.1388 H   0  0  0  0  0  0  0  0  0  0  0  0
   10.0770    0.0417    0.0639 C   0  0  0  0  0  0  0  0  0  0  0  0
   11.3015    0.0279    0.0678 C   0  0  0  0  0  0  0  0  0  0  0  0
   12.6440    0.0100    0.0662 C   0  0  0  0  0  0  0  0  0  0  0  0
   13.8745   -0.0191    0.0559 C   0  0  0  0  0  0  0  0  0  0  0  0
   15.2119   -0.0456    0.0468 C   0  0  0  0  0  0  0  0  0  0  0  0
   16.4426   -0.0708    0.0362 C   0  0  0  0  0  0  0  0  0  0  0  0
   17.7850   -0.0822    0.0221 C   0  0  0  0  0  0  0  0  0  0  0  0
   19.0096   -0.0831    0.0154 C   0  0  0  0  0  0  0  0  0  0  0  0
  2  3  4  0  0  0  0
  3  4  1  0  0  0  0
  4  5  2  0  0  0  0
  5  6  1  0  0  0  0
  1  7  1  0  0  0  0
  3  7  4  0  0  0  0
  6  7  4  0  0  0  0
  6  8  4  0  0  0  0
  8  9  4  0  0  0  0
  9 10  1  0  0  0  0
 10 11  2  0  0  0  0
  1 12  1  0  0  0  0
  9 12  4  0  0  0  0
 11 13  4  0  0  0  0
 12 13  4  0  0  0  0
 13 14  4  0  0  0  0
 14 15  4  0  0  0  0
 15 16  4  0  0  0  0
 16 17  2  0  0  0  0
 17 18  1  0  0  0  0
  1 19  1  0  0  0  0
 15 19  4  0  0  0  0
 18 19  4  0  0  0  0
 18 20  4  0  0  0  0
 20 21  4  0  0  0  0
 21 22  1  0  0  0  0
 22 23  2  0  0  0  0
  2 24  4  0  0  0  0
 23 24  1  0  0  0  0
  1 25  1  0  0  0  0
 21 25  4  0  0  0  0
 24 25  4  0  0  0  0
  2 26  1  0  0  0  0
  4 27  1  0  0  0  0
  5 28  1  0  0  0  0
  8 29  1  0  0  0  0
 10 30  1  0  0  0  0
 11 31  1  0  0  0  0
 16 32  1  0  0  0  0
 17 33  1  0  0  0  0
 20 34  1  0  0  0  0
 22 35  1  0  0  0  0
 23 36  1  0  0  0  0
 38 39  4  0  0  0  0
 39 40  1  0  0  0  0
 40 41  2  0  0  0  0
 41 42  1  0  0  0  0
 37 43  1  0  0  0  0
 39 43  4  0  0  0  0
 42 43  4  0  0  0  0
 42 44  4  0  0  0  0
 44 45  4  0  0  0  0
 45 46  1  0  0  0  0
 46 47  2  0  0  0  0
 37 48  1  0  0  0  0
 45 48  4  0  0  0  0
 47 49  4  0  0  0  0
 48 49  4  0  0  0  0
 49 50  4  0  0  0  0
 50 51  4  0  0  0  0
 51 52  4  0  0  0  0
 52 53  2  0  0  0  0
 53 54  1  0  0  0  0
 37 55  1  0  0  0  0
 51 55  4  0  0  0  0
 54 55  4  0  0  0  0
 54 56  4  0  0  0  0
 56 57  4  0  0  0  0
 57 58  1  0  0  0  0
 58 59  2  0  0  0  0
 38 60  4  0  0  0  0
 59 60  1  0  0  0  0
 37 61  1  0  0  0  0
 57 61  4  0  0  0  0
 60 61  4  0  0  0  0
 38 62  1  0  0  0  0
 40 63  1  0  0  0  0
 41 64  1  0  0  0  0
 44 65  1  0  0  0  0
 46 66  1  0  0  0  0
 47 67  1  0  0  0  0
 52 68  1  0  0  0  0
 53 69  1  0  0  0  0
 56 70  1  0  0  0  0
 58 71  1  0  0  0  0
 59 72  1  0  0  0  0
 14 73  4  0  0  0  0
 73 74  3  0  0  0  0
 74 75  4  0  0  0  0
 75 76  3  0  0  0  0
 76 77  4  0  0  0  0
 77 78  3  0  0  0  0
 78 79  4  0  0  0  0
 50 80  4  0  0  0  0
 79 80  3  0  0  0  0
M  END
