254

Ni 42.039176 -0.015920 -0.008198
C 38.701179 0.107235 0.063881
C 39.363153 1.256679 0.224802
C 38.712283 2.553986 0.361977
C 39.652252 3.464644 0.534664
C 40.957329 2.789228 0.528668
N 40.780543 1.387210 0.321583
C 42.149263 3.395082 0.710322
C 42.198473 4.853547 0.962592
C 41.715795 5.382690 2.170300
C 41.778748 6.758536 2.410784
C 42.329584 7.615080 1.449123
C 42.395596 9.031303 1.697837
N 42.448655 10.169878 1.897884
C 42.818692 7.090077 0.246190
C 42.755375 5.714421 0.004397
C 43.440696 2.659358 0.678806
C 44.724038 3.244437 1.086100
C 45.658840 2.334543 0.901290
N 43.583725 1.437512 0.265215
C 44.979056 1.156808 0.376105
C 45.573616 0.014774 -0.005666
C 44.810403 -1.145317 -0.517094
C 45.341321 -2.137837 -1.219950
C 44.298704 -3.123634 -1.429445
C 43.200797 -2.669740 -0.835930
N 43.434192 -1.396416 -0.232024
C 41.922303 -3.421077 -0.749808
C 41.945561 -4.886616 -0.977350
C 41.261391 -5.450659 -2.066795
C 41.303273 -6.830656 -2.287159
C 42.034927 -7.657531 -1.425553
C 42.078943 -9.078094 -1.653590
N 42.114367 -10.220177 -1.836846
C 42.726659 -7.098582 -0.343637
C 42.684742 -5.718755 -0.121918
C 40.759982 -2.801943 -0.467124
C 39.452693 -3.439710 -0.320146
C 38.590712 -2.464758 -0.104750
C 39.338922 -1.208779 -0.099841
N 40.603948 -1.393100 -0.310094
H 37.617819 0.135061 0.054524
H 37.648933 2.753127 0.324770
H 39.464217 4.523399 0.655925
H 41.293489 4.728911 2.923571
H 41.400665 7.153591 3.346086
H 43.249521 7.743223 -0.503151
H 43.138421 5.319191 -0.928483
H 44.894705 4.240539 1.472883
H 46.712618 2.466540 1.107513
H 46.367090 -2.218235 -1.553983
H 44.407818 -4.066091 -1.950316
H 40.700037 -4.820608 -2.745827
H 40.768548 -7.251890 -3.130017
H 43.298579 -7.728577 0.327036
H 43.225111 -5.298188 0.717396
H 39.211097 -4.493177 -0.371277
H 37.526094 -2.587635 0.045100
Ni 99.654359 0.045287 -0.009856
C 102.992355 -0.073786 0.068784
C 102.330381 -1.212832 0.291697
C 102.981251 -2.500811 0.498902
C 102.041282 -3.400784 0.720635
C 100.736205 -2.726684 0.678083
N 100.912991 -1.337932 0.395402
C 99.544271 -3.321815 0.892270
C 99.495061 -4.764484 1.223126
C 99.977740 -5.227470 2.457708
C 99.914786 -6.588280 2.772324
C 99.363951 -7.495629 1.858443
C 99.297939 -8.896310 2.183461
N 99.244880 -10.022387 2.444853
C 98.874843 -7.036519 0.628852
C 98.938160 -5.675970 0.312940
C 98.252838 -2.588876 0.820970
C 96.969496 -3.151048 1.259341
C 96.034695 -2.252493 1.025544
N 98.109809 -1.391212 0.341840
C 96.714479 -1.104917 0.437371
C 96.119919 0.014774 -0.005666
C 96.883132 1.145478 -0.579147
C 96.352214 2.098492 -1.334704
C 97.394830 3.071502 -1.597259
C 98.492738 2.650405 -0.980042
N 98.259342 1.411641 -0.308089
C 99.771232 3.405302 -0.934722
C 99.747973 4.856373 -1.241269
C 100.432144 5.360610 -2.359651
C 100.390261 6.726654 -2.654400
C 99.658607 7.598961 -1.838822
C 99.614591 9.005096 -2.143428
N 99.579168 10.135583 -2.388244
C 98.966876 7.099403 -0.728233
C 99.008793 5.733602 -0.432140
C 100.933553 2.802380 -0.618935
C 102.240841 3.447168 -0.506698
C 103.102822 2.485306 -0.238838
C 102.354612 1.231435 -0.165941
N 101.089587 1.404103 -0.385865
H 104.075716 -0.102078 0.060948
H 104.044602 -2.701674 0.472530
H 102.229317 -4.451423 0.899035
H 100.400046 -4.533871 3.174482
H 100.292870 -6.932122 3.727640
H 98.444013 -7.729273 -0.084031
H 98.555114 -5.331822 -0.639968
H 96.798829 -4.124750 1.699482
H 94.980917 -2.373132 1.238610
H 95.326445 2.160689 -1.672600
H 97.285716 3.984379 -2.168387
H 100.993497 4.694724 -3.003579
H 100.924986 7.101641 -3.518826
H 98.394955 7.764782 -0.092649
H 98.468424 5.359089 0.428711
H 102.482437 4.496322 -0.614785
H 104.167440 2.616115 -0.095860
C 48.053301 0.029464 0.004610
C 49.511527 0.007628 -0.013264
C 50.645455 -0.013126 -0.014755
C 52.006837 -0.025716 -0.016946
C 53.281055 -0.015409 -0.021711
C 54.469518 0.003389 -0.027867
C 55.821879 0.028173 -0.011999
C 56.922146 0.029464 0.004610
C 66.350326 0.029464 0.004610
C 67.808552 0.007628 -0.013264
C 68.942480 -0.013126 -0.014755
C 70.303862 -0.025716 -0.016946
C 71.578081 -0.015409 -0.021711
C 72.766543 0.003389 -0.027867
C 74.118904 0.028173 -0.011999
C 75.219172 0.029464 0.004610
C 84.647352 0.029464 0.004610
C 86.105578 0.007628 -0.013264
C 87.239506 -0.013126 -0.014755
C 88.600888 -0.025716 -0.016946
C 89.875107 -0.015409 -0.021711
C 91.063569 0.003389 -0.027867
C 92.415930 0.028173 -0.011999
C 93.516197 0.029464 0.004610
Ni 61.681228 0.025483 -0.018767
C 58.244684 -0.021237 0.004795
C 58.900253 -1.130673 -0.383105
C 58.259530 -2.401720 -0.726890
C 59.196028 -3.248883 -1.104923
C 60.493173 -2.569061 -1.029228
N 60.315238 -1.229059 -0.563401
C 61.677600 -3.124891 -1.362518
C 61.713203 -4.508243 -1.891102
C 61.191969 -4.796452 -3.162575
C 61.240741 -6.100615 -3.664020
C 61.815299 -7.125265 -2.901255
C 61.866652 -8.467563 -3.418444
N 61.908067 -9.546712 -3.834246
C 62.342101 -6.840383 -1.635076
C 62.293037 -5.536678 -1.132363
C 62.974552 -2.415610 -1.219092
C 64.243170 -2.912111 -1.767595
C 65.195383 -2.078492 -1.400842
N 63.142329 -1.318689 -0.548252
C 64.540490 -1.038454 -0.618087
C 65.155500 -0.021237 0.004795
C 64.404541 1.006526 0.755635
C 64.937283 1.810847 1.666605
C 63.905011 2.748044 2.067700
C 62.813585 2.454040 1.370326
N 63.038931 1.338796 0.509872
C 61.560399 3.245993 1.396843
C 61.622561 4.653490 1.861865
C 60.913331 5.059517 3.004424
C 60.990096 6.383022 3.448288
C 61.781558 7.310152 2.758955
C 61.860411 8.672635 3.216484
N 61.923778 9.768035 3.584297
C 62.498502 6.907854 1.625178
C 62.421982 5.584659 1.180117
C 60.388916 2.718855 0.991294
C 59.113632 3.423138 0.905757
C 58.225545 2.527764 0.524493
C 58.922675 1.247781 0.357164
N 60.187208 1.353599 0.624995
H 57.204846 -2.638592 -0.685448
H 59.009791 -4.271103 -1.407534
H 60.750609 -4.010708 -3.763398
H 60.833007 -6.309355 -4.645802
H 62.790876 -7.624918 -1.037724
H 62.704739 -5.327566 -0.152542
H 64.392769 -3.801561 -2.365443
H 66.244685 -2.175244 -1.646122
H 65.959138 1.799460 2.021475
H 64.019412 3.560944 2.773093
H 60.305253 4.349771 3.551851
H 60.435219 6.682234 4.329444
H 63.116386 7.616090 1.086314
H 62.981869 5.285689 0.302379
H 58.910036 4.467983 1.100148
H 57.175444 2.728970 0.361089
Ni 79.978254 0.025483 -0.018767
C 76.541710 -0.021237 0.004795
C 77.197279 -1.130673 -0.383105
C 76.556556 -2.401720 -0.726890
C 77.493054 -3.248883 -1.104923
C 78.790198 -2.569061 -1.029228
N 78.612263 -1.229059 -0.563401
C 79.974625 -3.124891 -1.362518
C 80.010229 -4.508243 -1.891102
C 79.488995 -4.796452 -3.162575
C 79.537767 -6.100615 -3.664020
C 80.112325 -7.125265 -2.901255
C 80.163678 -8.467563 -3.418444
N 80.205092 -9.546712 -3.834246
C 80.639127 -6.840383 -1.635076
C 80.590062 -5.536678 -1.132363
C 81.271577 -2.415610 -1.219092
C 82.540196 -2.912111 -1.767595
C 83.492409 -2.078492 -1.400842
N 81.439355 -1.318689 -0.548252
C 82.837515 -1.038454 -0.618087
C 83.452526 -0.021237 0.004795
C 82.701567 1.006526 0.755635
C 83.234309 1.810847 1.666605
C 82.202036 2.748044 2.067700
C 81.110611 2.454040 1.370326
N 81.335956 1.338796 0.509872
C 79.857425 3.245993 1.396843
C 79.919587 4.653490 1.861865
C 79.210357 5.059517 3.004424
C 79.287122 6.383022 3.448288
C 80.078584 7.310152 2.758955
C 80.157437 8.672635 3.216484
N 80.220804 9.768035 3.584297
C 80.795528 6.907854 1.625178
C 80.719007 5.584659 1.180117
C 78.685942 2.718855 0.991294
C 77.410657 3.423138 0.905757
C 76.522570 2.527764 0.524493
C 77.219701 1.247781 0.357164
N 78.484234 1.353599 0.624995
H 75.501872 -2.638592 -0.685448
H 77.306816 -4.271103 -1.407534
H 79.047635 -4.010708 -3.763398
H 79.130032 -6.309355 -4.645802
H 81.087902 -7.624918 -1.037724
H 81.001765 -5.327566 -0.152542
H 82.689794 -3.801561 -2.365443
H 84.541711 -2.175244 -1.646122
H 84.256164 1.799460 2.021475
H 82.316437 3.560944 2.773093
H 78.602279 4.349771 3.551851
H 78.732244 6.682234 4.329444
H 81.413411 7.616090 1.086314
H 81.278895 5.285689 0.302379
H 77.207061 4.467983 1.100148
H 75.472470 2.728970 0.361089
