 xtb: 6.5.1 (b24c23e)
          07302211523D

254293  0     0  0            999 V2000
   42.9966    0.0284    0.0346 Ni  0  0  0  0  0  0  0  0  0  0  0  0
   39.6065    0.0400    0.1538 C   0  0  0  0  0  0  0  0  0  0  0  0
   40.2611    1.2530    0.2067 C   0  0  0  0  0  0  0  0  0  0  0  0
   39.5889    2.5146    0.2711 C   0  0  0  0  0  0  0  0  0  0  0  0
   40.5487    3.4594    0.4054 C   0  0  0  0  0  0  0  0  0  0  0  0
   41.8064    2.7714    0.4395 C   0  0  0  0  0  0  0  0  0  0  0  0
   41.6216    1.4218    0.2746 N   0  0  0  0  0  0  0  0  0  0  0  0
   43.0265    3.3941    0.6709 C   0  0  0  0  0  0  0  0  0  0  0  0
   43.0409    4.8504    0.9431 C   0  0  0  0  0  0  0  0  0  0  0  0
   42.3728    5.3693    2.0546 C   0  0  0  0  0  0  0  0  0  0  0  0
   42.3848    6.7283    2.3125 C   0  0  0  0  0  0  0  0  0  0  0  0
   43.0642    7.5983    1.4546 C   0  0  0  0  0  0  0  0  0  0  0  0
   43.0743    8.9980    1.7141 C   0  0  0  0  0  0  0  0  0  0  0  0
   43.0820   10.1295    1.9237 N   0  0  0  0  0  0  0  0  0  0  0  0
   43.7331    7.0839    0.3399 C   0  0  0  0  0  0  0  0  0  0  0  0
   43.7224    5.7230    0.0918 C   0  0  0  0  0  0  0  0  0  0  0  0
   44.2325    2.7055    0.6679 C   0  0  0  0  0  0  0  0  0  0  0  0
   45.4943    3.3069    0.9770 C   0  0  0  0  0  0  0  0  0  0  0  0
   46.4382    2.3533    0.7906 C   0  0  0  0  0  0  0  0  0  0  0  0
   44.3997    1.3805    0.3349 N   0  0  0  0  0  0  0  0  0  0  0  0
   45.7511    1.1725    0.3743 C   0  0  0  0  0  0  0  0  0  0  0  0
   46.4084    0.0036   -0.0205 C   0  0  0  0  0  0  0  0  0  0  0  0
   45.7224   -1.1504   -0.4108 C   0  0  0  0  0  0  0  0  0  0  0  0
   46.3780   -2.3313   -0.8746 C   0  0  0  0  0  0  0  0  0  0  0  0
   45.4128   -3.2631   -1.0630 C   0  0  0  0  0  0  0  0  0  0  0  0
   44.1709   -2.6511   -0.6989 C   0  0  0  0  0  0  0  0  0  0  0  0
   44.3695   -1.3374   -0.3385 N   0  0  0  0  0  0  0  0  0  0  0  0
   42.9571   -3.3247   -0.6639 C   0  0  0  0  0  0  0  0  0  0  0  0
   42.9365   -4.7733   -0.9743 C   0  0  0  0  0  0  0  0  0  0  0  0
   42.2001   -5.2528   -2.0600 C   0  0  0  0  0  0  0  0  0  0  0  0
   42.1763   -6.6044   -2.3531 C   0  0  0  0  0  0  0  0  0  0  0  0
   42.8877   -7.5067   -1.5567 C   0  0  0  0  0  0  0  0  0  0  0  0
   42.8611   -8.8991   -1.8522 C   0  0  0  0  0  0  0  0  0  0  0  0
   42.8386  -10.0245   -2.0910 N   0  0  0  0  0  0  0  0  0  0  0  0
   43.6243   -7.0320   -0.4674 C   0  0  0  0  0  0  0  0  0  0  0  0
   43.6487   -5.6782   -0.1839 C   0  0  0  0  0  0  0  0  0  0  0  0
   41.7595   -2.6972   -0.3435 C   0  0  0  0  0  0  0  0  0  0  0  0
   40.5024   -3.3782   -0.2342 C   0  0  0  0  0  0  0  0  0  0  0  0
   39.5632   -2.4320   -0.0004 C   0  0  0  0  0  0  0  0  0  0  0  0
   40.2477   -1.1759    0.0408 C   0  0  0  0  0  0  0  0  0  0  0  0
   41.5981   -1.3511   -0.1335 N   0  0  0  0  0  0  0  0  0  0  0  0
   38.5237    0.0430    0.1960 H   0  0  0  0  0  0  0  0  0  0  0  0
   38.5193    2.6406    0.2166 H   0  0  0  0  0  0  0  0  0  0  0  0
   40.4293    4.5284    0.4740 H   0  0  0  0  0  0  0  0  0  0  0  0
   41.8544    4.6962    2.7281 H   0  0  0  0  0  0  0  0  0  0  0  0
   41.8690    7.1231    3.1799 H   0  0  0  0  0  0  0  0  0  0  0  0
   44.2583    7.7559   -0.3286 H   0  0  0  0  0  0  0  0  0  0  0  0
   44.2332    5.3286   -0.7794 H   0  0  0  0  0  0  0  0  0  0  0  0
   45.6295    4.3259    1.3008 H   0  0  0  0  0  0  0  0  0  0  0  0
   47.5062    2.4282    0.9163 H   0  0  0  0  0  0  0  0  0  0  0  0
   47.4407   -2.4198   -1.0323 H   0  0  0  0  0  0  0  0  0  0  0  0
   45.5217   -4.2745   -1.4192 H   0  0  0  0  0  0  0  0  0  0  0  0
   41.6555   -4.5546   -2.6855 H   0  0  0  0  0  0  0  0  0  0  0  0
   41.6073   -6.9686   -3.2005 H   0  0  0  0  0  0  0  0  0  0  0  0
   44.1738   -7.7291    0.1542 H   0  0  0  0  0  0  0  0  0  0  0  0
   44.2113   -5.3149    0.6686 H   0  0  0  0  0  0  0  0  0  0  0  0
   40.3699   -4.4443   -0.3216 H   0  0  0  0  0  0  0  0  0  0  0  0
   38.5000   -2.5531    0.1324 H   0  0  0  0  0  0  0  0  0  0  0  0
   98.7048    0.0082    0.0521 Ni  0  0  0  0  0  0  0  0  0  0  0  0
  102.0955    0.0010    0.1649 C   0  0  0  0  0  0  0  0  0  0  0  0
  101.4405   -1.2069    0.2859 C   0  0  0  0  0  0  0  0  0  0  0  0
  102.1128   -2.4632    0.4177 C   0  0  0  0  0  0  0  0  0  0  0  0
  101.1529   -3.3998    0.6003 C   0  0  0  0  0  0  0  0  0  0  0  0
   99.8951   -2.7110    0.5969 C   0  0  0  0  0  0  0  0  0  0  0  0
  100.0800   -1.3718    0.3620 N   0  0  0  0  0  0  0  0  0  0  0  0
   98.6749   -3.3214    0.8579 C   0  0  0  0  0  0  0  0  0  0  0  0
   98.6600   -4.7623    1.2027 C   0  0  0  0  0  0  0  0  0  0  0  0
   99.3260   -5.2248    2.3400 C   0  0  0  0  0  0  0  0  0  0  0  0
   99.3130   -6.5691    2.6660 C   0  0  0  0  0  0  0  0  0  0  0  0
   98.6346   -7.4809    1.8519 C   0  0  0  0  0  0  0  0  0  0  0  0
   98.6228   -8.8657    2.1821 C   0  0  0  0  0  0  0  0  0  0  0  0
   98.6141   -9.9851    2.4489 N   0  0  0  0  0  0  0  0  0  0  0  0
   97.9679   -7.0231    0.7115 C   0  0  0  0  0  0  0  0  0  0  0  0
   97.9797   -5.6765    0.3951 C   0  0  0  0  0  0  0  0  0  0  0  0
   97.4688   -2.6338    0.8205 C   0  0  0  0  0  0  0  0  0  0  0  0
   96.2074   -3.2195    1.1598 C   0  0  0  0  0  0  0  0  0  0  0  0
   95.2635   -2.2752    0.9306 C   0  0  0  0  0  0  0  0  0  0  0  0
   97.3016   -1.3262    0.4249 N   0  0  0  0  0  0  0  0  0  0  0  0
   95.9503   -1.1156    0.4579 C   0  0  0  0  0  0  0  0  0  0  0  0
   95.2926    0.0346    0.0131 C   0  0  0  0  0  0  0  0  0  0  0  0
   95.9772    1.1678   -0.4349 C   0  0  0  0  0  0  0  0  0  0  0  0
   95.3196    2.3252   -0.9523 C   0  0  0  0  0  0  0  0  0  0  0  0
   96.2849    3.2434   -1.1978 C   0  0  0  0  0  0  0  0  0  0  0  0
   97.5290    2.6477   -0.8144 C   0  0  0  0  0  0  0  0  0  0  0  0
   97.3311    1.3552   -0.3839 N   0  0  0  0  0  0  0  0  0  0  0  0
   98.7446    3.3188   -0.8279 C   0  0  0  0  0  0  0  0  0  0  0  0
   98.7661    4.7474   -1.2202 C   0  0  0  0  0  0  0  0  0  0  0  0
   99.4918    5.1609   -2.3397 C   0  0  0  0  0  0  0  0  0  0  0  0
   99.5161    6.4933   -2.7106 C   0  0  0  0  0  0  0  0  0  0  0  0
   98.8162    7.4425   -1.9597 C   0  0  0  0  0  0  0  0  0  0  0  0
   98.8427    8.8153   -2.3358 C   0  0  0  0  0  0  0  0  0  0  0  0
   98.8658    9.9247   -2.6404 N   0  0  0  0  0  0  0  0  0  0  0  0
   98.0909    7.0339   -0.8366 C   0  0  0  0  0  0  0  0  0  0  0  0
   98.0657    5.6988   -0.4753 C   0  0  0  0  0  0  0  0  0  0  0  0
   99.9433    2.7074   -0.4820 C   0  0  0  0  0  0  0  0  0  0  0  0
  101.2019    3.3916   -0.4185 C   0  0  0  0  0  0  0  0  0  0  0  0
  102.1408    2.4594   -0.1335 C   0  0  0  0  0  0  0  0  0  0  0  0
  101.4549    1.2089   -0.0166 C   0  0  0  0  0  0  0  0  0  0  0  0
  100.1040    1.3754   -0.1958 N   0  0  0  0  0  0  0  0  0  0  0  0
  103.1784   -0.0003    0.2057 H   0  0  0  0  0  0  0  0  0  0  0  0
  103.1824   -2.5918    0.3708 H   0  0  0  0  0  0  0  0  0  0  0  0
  101.2723   -4.4637    0.7249 H   0  0  0  0  0  0  0  0  0  0  0  0
   99.8434   -4.5188    2.9798 H   0  0  0  0  0  0  0  0  0  0  0  0
   99.8270   -6.9199    3.5532 H   0  0  0  0  0  0  0  0  0  0  0  0
   97.4435   -7.7277    0.0768 H   0  0  0  0  0  0  0  0  0  0  0  0
   97.4706   -5.3262   -0.4956 H   0  0  0  0  0  0  0  0  0  0  0  0
   96.0724   -4.2220    1.5317 H   0  0  0  0  0  0  0  0  0  0  0  0
   94.1957   -2.3435    1.0621 H   0  0  0  0  0  0  0  0  0  0  0  0
   94.2557    2.4082   -1.1043 H   0  0  0  0  0  0  0  0  0  0  0  0
   96.1747    4.2353   -1.6046 H   0  0  0  0  0  0  0  0  0  0  0  0
  100.0275    4.4259   -2.9298 H   0  0  0  0  0  0  0  0  0  0  0  0
  100.0764    6.8061   -3.5839 H   0  0  0  0  0  0  0  0  0  0  0  0
   97.5505    7.7677   -0.2501 H   0  0  0  0  0  0  0  0  0  0  0  0
   97.5119    5.3872    0.4031 H   0  0  0  0  0  0  0  0  0  0  0  0
  101.3353    4.4506   -0.5686 H   0  0  0  0  0  0  0  0  0  0  0  0
  103.2047    2.5864   -0.0122 H   0  0  0  0  0  0  0  0  0  0  0  0
   47.8128   -0.0085   -0.0319 C   0  0  0  0  0  0  0  0  0  0  0  0
   49.0370   -0.0172   -0.0387 C   0  0  0  0  0  0  0  0  0  0  0  0
   50.3799   -0.0209   -0.0435 C   0  0  0  0  0  0  0  0  0  0  0  0
   51.6104   -0.0228   -0.0486 C   0  0  0  0  0  0  0  0  0  0  0  0
   52.9485   -0.0205   -0.0478 C   0  0  0  0  0  0  0  0  0  0  0  0
   54.1791   -0.0159   -0.0463 C   0  0  0  0  0  0  0  0  0  0  0  0
   55.5218   -0.0099   -0.0435 C   0  0  0  0  0  0  0  0  0  0  0  0
   56.7462   -0.0042   -0.0406 C   0  0  0  0  0  0  0  0  0  0  0  0
   66.3823    0.0126    0.0248 C   0  0  0  0  0  0  0  0  0  0  0  0
   67.6068    0.0122    0.0317 C   0  0  0  0  0  0  0  0  0  0  0  0
   68.9495    0.0124    0.0369 C   0  0  0  0  0  0  0  0  0  0  0  0
   70.1801    0.0127    0.0377 C   0  0  0  0  0  0  0  0  0  0  0  0
   71.5181    0.0143    0.0364 C   0  0  0  0  0  0  0  0  0  0  0  0
   72.7487    0.0160    0.0324 C   0  0  0  0  0  0  0  0  0  0  0  0
   74.0914    0.0193    0.0258 C   0  0  0  0  0  0  0  0  0  0  0  0
   75.3158    0.0233    0.0180 C   0  0  0  0  0  0  0  0  0  0  0  0
   84.9536    0.0536   -0.0099 C   0  0  0  0  0  0  0  0  0  0  0  0
   86.1779    0.0579   -0.0081 C   0  0  0  0  0  0  0  0  0  0  0  0
   87.5211    0.0606   -0.0079 C   0  0  0  0  0  0  0  0  0  0  0  0
   88.7514    0.0630   -0.0019 C   0  0  0  0  0  0  0  0  0  0  0  0
   90.0899    0.0619   -0.0016 C   0  0  0  0  0  0  0  0  0  0  0  0
   91.3202    0.0611    0.0017 C   0  0  0  0  0  0  0  0  0  0  0  0
   92.6636    0.0556    0.0028 C   0  0  0  0  0  0  0  0  0  0  0  0
   93.8876    0.0473    0.0067 C   0  0  0  0  0  0  0  0  0  0  0  0
   61.5643    0.0111   -0.0243 Ni  0  0  0  0  0  0  0  0  0  0  0  0
   58.1499    0.0010   -0.0376 C   0  0  0  0  0  0  0  0  0  0  0  0
   58.8287   -1.1910   -0.3096 C   0  0  0  0  0  0  0  0  0  0  0  0
   58.1672   -2.4321   -0.5559 C   0  0  0  0  0  0  0  0  0  0  0  0
   59.1262   -3.3185   -0.9182 C   0  0  0  0  0  0  0  0  0  0  0  0
   60.3700   -2.6112   -0.8998 C   0  0  0  0  0  0  0  0  0  0  0  0
   60.1801   -1.3147   -0.4791 N   0  0  0  0  0  0  0  0  0  0  0  0
   61.5785   -3.1531   -1.3187 C   0  0  0  0  0  0  0  0  0  0  0  0
   61.5819   -4.5216   -1.8857 C   0  0  0  0  0  0  0  0  0  0  0  0
   60.8481   -4.8105   -3.0385 C   0  0  0  0  0  0  0  0  0  0  0  0
   60.8503   -6.0861   -3.5735 C   0  0  0  0  0  0  0  0  0  0  0  0
   61.5850   -7.1032   -2.9569 C   0  0  0  0  0  0  0  0  0  0  0  0
   61.5860   -8.4183   -3.5021 C   0  0  0  0  0  0  0  0  0  0  0  0
   61.5872   -9.4810   -3.9436 N   0  0  0  0  0  0  0  0  0  0  0  0
   62.3181   -6.8198   -1.8007 C   0  0  0  0  0  0  0  0  0  0  0  0
   62.3172   -5.5402   -1.2752 C   0  0  0  0  0  0  0  0  0  0  0  0
   62.7825   -2.4670   -1.2271 C   0  0  0  0  0  0  0  0  0  0  0  0
   64.0339   -2.9787   -1.6961 C   0  0  0  0  0  0  0  0  0  0  0  0
   64.9856   -2.0913   -1.3175 C   0  0  0  0  0  0  0  0  0  0  0  0
   62.9610   -1.2480   -0.6132 N   0  0  0  0  0  0  0  0  0  0  0  0
   64.3118   -1.0363   -0.6307 C   0  0  0  0  0  0  0  0  0  0  0  0
   64.9787    0.0122    0.0112 C   0  0  0  0  0  0  0  0  0  0  0  0
   64.2977    1.0626    0.6347 C   0  0  0  0  0  0  0  0  0  0  0  0
   64.9564    2.1235    1.3270 C   0  0  0  0  0  0  0  0  0  0  0  0
   63.9972    3.0160    1.6736 C   0  0  0  0  0  0  0  0  0  0  0  0
   62.7563    2.4999    1.1821 C   0  0  0  0  0  0  0  0  0  0  0  0
   62.9476    1.2748    0.5848 N   0  0  0  0  0  0  0  0  0  0  0  0
   61.5500    3.1856    1.2444 C   0  0  0  0  0  0  0  0  0  0  0  0
   61.5435    4.5616    1.7929 C   0  0  0  0  0  0  0  0  0  0  0  0
   60.7905    4.8669    2.9290 C   0  0  0  0  0  0  0  0  0  0  0  0
   60.7837    6.1501    3.4455 C   0  0  0  0  0  0  0  0  0  0  0  0
   61.5290    7.1583    2.8270 C   0  0  0  0  0  0  0  0  0  0  0  0
   61.5207    8.4812    3.3530 C   0  0  0  0  0  0  0  0  0  0  0  0
   61.5141    9.5498    3.7798 N   0  0  0  0  0  0  0  0  0  0  0  0
   62.2820    6.8583    1.6880 C   0  0  0  0  0  0  0  0  0  0  0  0
   62.2897    5.5713    1.1809 C   0  0  0  0  0  0  0  0  0  0  0  0
   60.3487    2.6346    0.8170 C   0  0  0  0  0  0  0  0  0  0  0  0
   59.1007    3.3349    0.8184 C   0  0  0  0  0  0  0  0  0  0  0  0
   58.1489    2.4382    0.4624 C   0  0  0  0  0  0  0  0  0  0  0  0
   58.8193    1.1987    0.2333 C   0  0  0  0  0  0  0  0  0  0  0  0
   60.1689    1.3323    0.4095 N   0  0  0  0  0  0  0  0  0  0  0  0
   57.1047   -2.5887   -0.4630 H   0  0  0  0  0  0  0  0  0  0  0  0
   59.0116   -4.3595   -1.1724 H   0  0  0  0  0  0  0  0  0  0  0  0
   60.2858   -4.0215   -3.5250 H   0  0  0  0  0  0  0  0  0  0  0  0
   60.2840   -6.3014   -4.4720 H   0  0  0  0  0  0  0  0  0  0  0  0
   62.8854   -7.6069   -1.3179 H   0  0  0  0  0  0  0  0  0  0  0  0
   62.8777   -5.3265   -0.3721 H   0  0  0  0  0  0  0  0  0  0  0  0
   64.1584   -3.8974   -2.2456 H   0  0  0  0  0  0  0  0  0  0  0  0
   66.0504   -2.1344   -1.4800 H   0  0  0  0  0  0  0  0  0  0  0  0
   66.0172    2.1672    1.5135 H   0  0  0  0  0  0  0  0  0  0  0  0
   64.1100    3.9403    2.2162 H   0  0  0  0  0  0  0  0  0  0  0  0
   60.2202    4.0848    3.4175 H   0  0  0  0  0  0  0  0  0  0  0  0
   60.2021    6.3782    4.3310 H   0  0  0  0  0  0  0  0  0  0  0  0
   62.8579    7.6384    1.2040 H   0  0  0  0  0  0  0  0  0  0  0  0
   62.8658    5.3447    0.2909 H   0  0  0  0  0  0  0  0  0  0  0  0
   58.9783    4.3784    1.0587 H   0  0  0  0  0  0  0  0  0  0  0  0
   57.0861    2.5874    0.3616 H   0  0  0  0  0  0  0  0  0  0  0  0
   80.1345    0.0440   -0.0110 Ni  0  0  0  0  0  0  0  0  0  0  0  0
   76.7195    0.0295    0.0083 C   0  0  0  0  0  0  0  0  0  0  0  0
   77.3969   -1.1600   -0.2780 C   0  0  0  0  0  0  0  0  0  0  0  0
   76.7338   -2.4002   -0.5249 C   0  0  0  0  0  0  0  0  0  0  0  0
   77.6907   -3.2856   -0.8949 C   0  0  0  0  0  0  0  0  0  0  0  0
   78.9348   -2.5785   -0.8813 C   0  0  0  0  0  0  0  0  0  0  0  0
   78.7472   -1.2828   -0.4567 N   0  0  0  0  0  0  0  0  0  0  0  0
   80.1409   -3.1206   -1.3058 C   0  0  0  0  0  0  0  0  0  0  0  0
   80.1439   -4.4912   -1.8679 C   0  0  0  0  0  0  0  0  0  0  0  0
   79.4068   -4.7867   -3.0169 C   0  0  0  0  0  0  0  0  0  0  0  0
   79.4110   -6.0645   -3.5468 C   0  0  0  0  0  0  0  0  0  0  0  0
   80.1511   -7.0770   -2.9290 C   0  0  0  0  0  0  0  0  0  0  0  0
   80.1553   -8.3940   -3.4696 C   0  0  0  0  0  0  0  0  0  0  0  0
   80.1598   -9.4583   -3.9070 N   0  0  0  0  0  0  0  0  0  0  0  0
   80.8873   -6.7869   -1.7764 C   0  0  0  0  0  0  0  0  0  0  0  0
   80.8842   -5.5053   -1.2560 C   0  0  0  0  0  0  0  0  0  0  0  0
   81.3452   -2.4335   -1.2231 C   0  0  0  0  0  0  0  0  0  0  0  0
   82.5932   -2.9453   -1.7012 C   0  0  0  0  0  0  0  0  0  0  0  0
   83.5471   -2.0558   -1.3333 C   0  0  0  0  0  0  0  0  0  0  0  0
   81.5274   -1.2130   -0.6136 N   0  0  0  0  0  0  0  0  0  0  0  0
   82.8781   -0.9998   -0.6435 C   0  0  0  0  0  0  0  0  0  0  0  0
   83.5494    0.0510   -0.0109 C   0  0  0  0  0  0  0  0  0  0  0  0
   82.8735    1.1011    0.6178 C   0  0  0  0  0  0  0  0  0  0  0  0
   83.5381    2.1642    1.3011 C   0  0  0  0  0  0  0  0  0  0  0  0
   82.5811    3.0544    1.6590 C   0  0  0  0  0  0  0  0  0  0  0  0
   81.3354    2.5346    1.1836 C   0  0  0  0  0  0  0  0  0  0  0  0
   81.5222    1.3101    0.5842 N   0  0  0  0  0  0  0  0  0  0  0  0
   80.1281    3.2169    1.2635 C   0  0  0  0  0  0  0  0  0  0  0  0
   80.1274    4.5928    1.8124 C   0  0  0  0  0  0  0  0  0  0  0  0
   79.3953    4.8963    2.9625 C   0  0  0  0  0  0  0  0  0  0  0  0
   79.3973    6.1791    3.4803 C   0  0  0  0  0  0  0  0  0  0  0  0
   80.1303    7.1884    2.8491 C   0  0  0  0  0  0  0  0  0  0  0  0
   80.1335    8.5103    3.3776 C   0  0  0  0  0  0  0  0  0  0  0  0
   80.1333    9.5787    3.8052 N   0  0  0  0  0  0  0  0  0  0  0  0
   80.8616    6.8903    1.6955 C   0  0  0  0  0  0  0  0  0  0  0  0
   80.8607    5.6038    1.1872 C   0  0  0  0  0  0  0  0  0  0  0  0
   78.9226    2.6632    0.8526 C   0  0  0  0  0  0  0  0  0  0  0  0
   77.6728    3.3601    0.8743 C   0  0  0  0  0  0  0  0  0  0  0  0
   76.7190    2.4627    0.5260 C   0  0  0  0  0  0  0  0  0  0  0  0
   77.3897    1.2262    0.2814 C   0  0  0  0  0  0  0  0  0  0  0  0
   78.7409    1.3621    0.4417 N   0  0  0  0  0  0  0  0  0  0  0  0
   75.6719   -2.5570   -0.4264 H   0  0  0  0  0  0  0  0  0  0  0  0
   77.5745   -4.3259   -1.1515 H   0  0  0  0  0  0  0  0  0  0  0  0
   78.8405   -4.0014   -3.5046 H   0  0  0  0  0  0  0  0  0  0  0  0
   78.8422   -6.2851   -4.4424 H   0  0  0  0  0  0  0  0  0  0  0  0
   81.4589   -7.5703   -1.2927 H   0  0  0  0  0  0  0  0  0  0  0  0
   81.4474   -5.2863   -0.3559 H   0  0  0  0  0  0  0  0  0  0  0  0
   82.7140   -3.8652   -2.2496 H   0  0  0  0  0  0  0  0  0  0  0  0
   84.6105   -2.0979   -1.5048 H   0  0  0  0  0  0  0  0  0  0  0  0
   84.6010    2.2107    1.4744 H   0  0  0  0  0  0  0  0  0  0  0  0
   82.6983    3.9793    2.1996 H   0  0  0  0  0  0  0  0  0  0  0  0
   78.8349    4.1134    3.4609 H   0  0  0  0  0  0  0  0  0  0  0  0
   78.8325    6.4059    4.3770 H   0  0  0  0  0  0  0  0  0  0  0  0
   81.4279    7.6712    1.2016 H   0  0  0  0  0  0  0  0  0  0  0  0
   81.4204    5.3783    0.2865 H   0  0  0  0  0  0  0  0  0  0  0  0
   77.5509    4.4018    1.1219 H   0  0  0  0  0  0  0  0  0  0  0  0
   75.6545    2.6095    0.4398 H   0  0  0  0  0  0  0  0  0  0  0  0
  2  3  4  0  0  0  0
  3  4  4  0  0  0  0
  4  5  2  0  0  0  0
  5  6  4  0  0  0  0
  1  7  1  0  0  0  0
  3  7  4  0  0  0  0
  6  7  4  0  0  0  0
  6  8  4  0  0  0  0
  8  9  1  0  0  0  0
  9 10  4  0  0  0  0
 10 11  4  0  0  0  0
 11 12  4  0  0  0  0
 12 13  1  0  0  0  0
 13 14  3  0  0  0  0
 12 15  4  0  0  0  0
  9 16  4  0  0  0  0
 15 16  4  0  0  0  0
  8 17  4  0  0  0  0
 17 18  4  0  0  0  0
 18 19  2  0  0  0  0
  1 20  1  0  0  0  0
 17 20  4  0  0  0  0
 19 21  4  0  0  0  0
 20 21  4  0  0  0  0
 21 22  4  0  0  0  0
 22 23  4  0  0  0  0
 23 24  4  0  0  0  0
 24 25  2  0  0  0  0
 25 26  4  0  0  0  0
  1 27  1  0  0  0  0
 23 27  4  0  0  0  0
 26 27  4  0  0  0  0
 26 28  4  0  0  0  0
 28 29  1  0  0  0  0
 29 30  4  0  0  0  0
 30 31  4  0  0  0  0
 31 32  4  0  0  0  0
 32 33  1  0  0  0  0
 33 34  3  0  0  0  0
 32 35  4  0  0  0  0
 29 36  4  0  0  0  0
 35 36  4  0  0  0  0
 28 37  4  0  0  0  0
 37 38  4  0  0  0  0
 38 39  2  0  0  0  0
  2 40  4  0  0  0  0
 39 40  4  0  0  0  0
  1 41  1  0  0  0  0
 37 41  4  0  0  0  0
 40 41  4  0  0  0  0
  2 42  1  0  0  0  0
  4 43  1  0  0  0  0
  5 44  1  0  0  0  0
 10 45  1  0  0  0  0
 11 46  1  0  0  0  0
 15 47  1  0  0  0  0
 16 48  1  0  0  0  0
 18 49  1  0  0  0  0
 19 50  1  0  0  0  0
 24 51  1  0  0  0  0
 25 52  1  0  0  0  0
 30 53  1  0  0  0  0
 31 54  1  0  0  0  0
 35 55  1  0  0  0  0
 36 56  1  0  0  0  0
 38 57  1  0  0  0  0
 39 58  1  0  0  0  0
 60 61  4  0  0  0  0
 61 62  4  0  0  0  0
 62 63  2  0  0  0  0
 63 64  4  0  0  0  0
 59 65  1  0  0  0  0
 61 65  4  0  0  0  0
 64 65  4  0  0  0  0
 64 66  4  0  0  0  0
 66 67  1  0  0  0  0
 67 68  4  0  0  0  0
 68 69  4  0  0  0  0
 69 70  4  0  0  0  0
 70 71  1  0  0  0  0
 71 72  3  0  0  0  0
 70 73  4  0  0  0  0
 67 74  4  0  0  0  0
 73 74  4  0  0  0  0
 66 75  4  0  0  0  0
 75 76  4  0  0  0  0
 76 77  2  0  0  0  0
 59 78  1  0  0  0  0
 75 78  4  0  0  0  0
 77 79  4  0  0  0  0
 78 79  4  0  0  0  0
 79 80  4  0  0  0  0
 80 81  4  0  0  0  0
 81 82  4  0  0  0  0
 82 83  2  0  0  0  0
 83 84  4  0  0  0  0
 59 85  1  0  0  0  0
 81 85  4  0  0  0  0
 84 85  4  0  0  0  0
 84 86  4  0  0  0  0
 86 87  1  0  0  0  0
 87 88  4  0  0  0  0
 88 89  4  0  0  0  0
 89 90  4  0  0  0  0
 90 91  1  0  0  0  0
 91 92  3  0  0  0  0
 90 93  4  0  0  0  0
 87 94  4  0  0  0  0
 93 94  4  0  0  0  0
 86 95  4  0  0  0  0
 95 96  4  0  0  0  0
 96 97  2  0  0  0  0
 60 98  4  0  0  0  0
 97 98  4  0  0  0  0
 59 99  1  0  0  0  0
 95 99  4  0  0  0  0
 98 99  4  0  0  0  0
 60100  1  0  0  0  0
 62101  1  0  0  0  0
 63102  1  0  0  0  0
 68103  1  0  0  0  0
 69104  1  0  0  0  0
 73105  1  0  0  0  0
 74106  1  0  0  0  0
 76107  1  0  0  0  0
 77108  1  0  0  0  0
 82109  1  0  0  0  0
 83110  1  0  0  0  0
 88111  1  0  0  0  0
 89112  1  0  0  0  0
 93113  1  0  0  0  0
 94114  1  0  0  0  0
 96115  1  0  0  0  0
 97116  1  0  0  0  0
 22117  4  0  0  0  0
117118  3  0  0  0  0
118119  4  0  0  0  0
119120  3  0  0  0  0
120121  4  0  0  0  0
121122  3  0  0  0  0
122123  4  0  0  0  0
123124  3  0  0  0  0
125126  3  0  0  0  0
126127  4  0  0  0  0
127128  3  0  0  0  0
128129  4  0  0  0  0
129130  3  0  0  0  0
130131  4  0  0  0  0
131132  3  0  0  0  0
133134  3  0  0  0  0
134135  4  0  0  0  0
135136  3  0  0  0  0
136137  4  0  0  0  0
137138  3  0  0  0  0
138139  4  0  0  0  0
 80140  4  0  0  0  0
139140  3  0  0  0  0
124142  4  0  0  0  0
142143  4  0  0  0  0
143144  4  0  0  0  0
144145  2  0  0  0  0
145146  4  0  0  0  0
141147  1  0  0  0  0
143147  4  0  0  0  0
146147  4  0  0  0  0
146148  4  0  0  0  0
148149  1  0  0  0  0
149150  4  0  0  0  0
150151  4  0  0  0  0
151152  4  0  0  0  0
152153  1  0  0  0  0
153154  3  0  0  0  0
152155  4  0  0  0  0
149156  4  0  0  0  0
155156  4  0  0  0  0
148157  4  0  0  0  0
157158  4  0  0  0  0
158159  2  0  0  0  0
141160  1  0  0  0  0
157160  4  0  0  0  0
159161  4  0  0  0  0
160161  4  0  0  0  0
125162  4  0  0  0  0
161162  4  0  0  0  0
162163  4  0  0  0  0
163164  4  0  0  0  0
164165  2  0  0  0  0
165166  4  0  0  0  0
141167  1  0  0  0  0
163167  4  0  0  0  0
166167  4  0  0  0  0
166168  4  0  0  0  0
168169  1  0  0  0  0
169170  4  0  0  0  0
170171  4  0  0  0  0
171172  4  0  0  0  0
172173  1  0  0  0  0
173174  3  0  0  0  0
172175  4  0  0  0  0
169176  4  0  0  0  0
175176  4  0  0  0  0
168177  4  0  0  0  0
177178  4  0  0  0  0
178179  2  0  0  0  0
142180  4  0  0  0  0
179180  4  0  0  0  0
141181  1  0  0  0  0
177181  4  0  0  0  0
180181  4  0  0  0  0
144182  1  0  0  0  0
145183  1  0  0  0  0
150184  1  0  0  0  0
151185  1  0  0  0  0
155186  1  0  0  0  0
156187  1  0  0  0  0
158188  1  0  0  0  0
159189  1  0  0  0  0
164190  1  0  0  0  0
165191  1  0  0  0  0
170192  1  0  0  0  0
171193  1  0  0  0  0
175194  1  0  0  0  0
176195  1  0  0  0  0
178196  1  0  0  0  0
179197  1  0  0  0  0
132199  4  0  0  0  0
199200  4  0  0  0  0
200201  4  0  0  0  0
201202  2  0  0  0  0
202203  4  0  0  0  0
198204  1  0  0  0  0
200204  4  0  0  0  0
203204  4  0  0  0  0
203205  4  0  0  0  0
205206  1  0  0  0  0
206207  4  0  0  0  0
207208  4  0  0  0  0
208209  4  0  0  0  0
209210  1  0  0  0  0
210211  3  0  0  0  0
209212  4  0  0  0  0
206213  4  0  0  0  0
212213  4  0  0  0  0
205214  4  0  0  0  0
214215  4  0  0  0  0
215216  2  0  0  0  0
198217  1  0  0  0  0
214217  4  0  0  0  0
216218  4  0  0  0  0
217218  4  0  0  0  0
133219  4  0  0  0  0
218219  4  0  0  0  0
219220  4  0  0  0  0
220221  4  0  0  0  0
221222  2  0  0  0  0
222223  4  0  0  0  0
198224  1  0  0  0  0
220224  4  0  0  0  0
223224  4  0  0  0  0
223225  4  0  0  0  0
225226  1  0  0  0  0
226227  4  0  0  0  0
227228  4  0  0  0  0
228229  4  0  0  0  0
229230  1  0  0  0  0
230231  3  0  0  0  0
229232  4  0  0  0  0
226233  4  0  0  0  0
232233  4  0  0  0  0
225234  4  0  0  0  0
234235  4  0  0  0  0
235236  2  0  0  0  0
199237  4  0  0  0  0
236237  4  0  0  0  0
198238  1  0  0  0  0
234238  4  0  0  0  0
237238  4  0  0  0  0
201239  1  0  0  0  0
202240  1  0  0  0  0
207241  1  0  0  0  0
208242  1  0  0  0  0
212243  1  0  0  0  0
213244  1  0  0  0  0
215245  1  0  0  0  0
216246  1  0  0  0  0
221247  1  0  0  0  0
222248  1  0  0  0  0
227249  1  0  0  0  0
228250  1  0  0  0  0
232251  1  0  0  0  0
233252  1  0  0  0  0
235253  1  0  0  0  0
236254  1  0  0  0  0
M  END
