 xtb: 6.5.1 (b24c23e)
          07292216303D

128147  0     0  0            999 V2000
   15.7609    0.0256   -0.0218 Fe  0  0  0  0  0  0  0  0  0  0  0  0
   12.3739    0.0134    0.1557 C   0  0  0  0  0  0  0  0  0  0  0  0
   13.0167    1.2337    0.1765 C   0  0  0  0  0  0  0  0  0  0  0  0
   12.3314    2.4898    0.2311 C   0  0  0  0  0  0  0  0  0  0  0  0
   13.2837    3.4472    0.3238 C   0  0  0  0  0  0  0  0  0  0  0  0
   14.5497    2.7724    0.3357 C   0  0  0  0  0  0  0  0  0  0  0  0
   14.3738    1.4207    0.2148 N   0  0  0  0  0  0  0  0  0  0  0  0
   15.7715    3.4176    0.4898 C   0  0  0  0  0  0  0  0  0  0  0  0
   15.7736    4.8854    0.7024 C   0  0  0  0  0  0  0  0  0  0  0  0
   15.1776    5.4350    1.8336 C   0  0  0  0  0  0  0  0  0  0  0  0
   15.1848    6.8145    2.0359 C   0  0  0  0  0  0  0  0  0  0  0  0
   14.5418    7.3404    3.2667 C   0  0  0  0  0  0  0  0  0  0  0  0
   14.6231    8.6736    3.3856 O   0  0  0  0  0  0  0  0  0  0  0  0
   13.9944    6.6565    4.0930 O   0  0  0  0  0  0  0  0  0  0  0  0
   15.7842    7.6554    1.0984 C   0  0  0  0  0  0  0  0  0  0  0  0
   16.3742    7.1102   -0.0312 C   0  0  0  0  0  0  0  0  0  0  0  0
   16.3737    5.7365   -0.2284 C   0  0  0  0  0  0  0  0  0  0  0  0
   16.9880    2.7511    0.4564 C   0  0  0  0  0  0  0  0  0  0  0  0
   18.2547    3.3902    0.6549 C   0  0  0  0  0  0  0  0  0  0  0  0
   19.2035    2.4401    0.4751 C   0  0  0  0  0  0  0  0  0  0  0  0
   17.1637    1.4123    0.1996 N   0  0  0  0  0  0  0  0  0  0  0  0
   18.5138    1.2239    0.1783 C   0  0  0  0  0  0  0  0  0  0  0  0
   19.1719    0.0281   -0.1339 C   0  0  0  0  0  0  0  0  0  0  0  0
   18.4942   -1.1685   -0.3981 C   0  0  0  0  0  0  0  0  0  0  0  0
   19.1609   -2.3802   -0.7586 C   0  0  0  0  0  0  0  0  0  0  0  0
   18.2048   -3.3356   -0.8529 C   0  0  0  0  0  0  0  0  0  0  0  0
   16.9577   -2.7039   -0.5399 C   0  0  0  0  0  0  0  0  0  0  0  0
   17.1495   -1.3655   -0.2922 N   0  0  0  0  0  0  0  0  0  0  0  0
   15.7462   -3.3765   -0.4663 C   0  0  0  0  0  0  0  0  0  0  0  0
   15.7363   -4.8450   -0.6739 C   0  0  0  0  0  0  0  0  0  0  0  0
   16.4223   -5.6885    0.2025 C   0  0  0  0  0  0  0  0  0  0  0  0
   16.4093   -7.0636    0.0144 C   0  0  0  0  0  0  0  0  0  0  0  0
   15.7172   -7.6122   -1.0523 C   0  0  0  0  0  0  0  0  0  0  0  0
   15.0302   -6.7790   -1.9364 C   0  0  0  0  0  0  0  0  0  0  0  0
   14.3016   -7.4054   -3.0682 C   0  0  0  0  0  0  0  0  0  0  0  0
   13.6597   -6.5230   -3.8474 O   0  0  0  0  0  0  0  0  0  0  0  0
   14.2743   -8.5896   -3.2859 O   0  0  0  0  0  0  0  0  0  0  0  0
   15.0387   -5.3989   -1.7449 C   0  0  0  0  0  0  0  0  0  0  0  0
   14.5390   -2.7363   -0.2088 C   0  0  0  0  0  0  0  0  0  0  0  0
   13.2812   -3.4163   -0.0903 C   0  0  0  0  0  0  0  0  0  0  0  0
   12.3361   -2.4629    0.0827 C   0  0  0  0  0  0  0  0  0  0  0  0
   13.0183   -1.2041    0.0798 C   0  0  0  0  0  0  0  0  0  0  0  0
   14.3687   -1.3861   -0.0652 N   0  0  0  0  0  0  0  0  0  0  0  0
   11.2907    0.0106    0.2021 H   0  0  0  0  0  0  0  0  0  0  0  0
   11.2595    2.6036    0.2009 H   0  0  0  0  0  0  0  0  0  0  0  0
   13.1543    4.5159    0.3765 H   0  0  0  0  0  0  0  0  0  0  0  0
   14.7157    4.7950    2.5775 H   0  0  0  0  0  0  0  0  0  0  0  0
   14.1842    8.9369    4.2110 H   0  0  0  0  0  0  0  0  0  0  0  0
   15.7855    8.7272    1.2556 H   0  0  0  0  0  0  0  0  0  0  0  0
   16.8386    7.7585   -0.7655 H   0  0  0  0  0  0  0  0  0  0  0  0
   16.8290    5.3162   -1.1181 H   0  0  0  0  0  0  0  0  0  0  0  0
   18.3903    4.4299    0.9045 H   0  0  0  0  0  0  0  0  0  0  0  0
   20.2753    2.5392    0.5347 H   0  0  0  0  0  0  0  0  0  0  0  0
   20.2232   -2.4719   -0.9176 H   0  0  0  0  0  0  0  0  0  0  0  0
   18.3225   -4.3739   -1.1170 H   0  0  0  0  0  0  0  0  0  0  0  0
   16.9553   -5.2609    1.0443 H   0  0  0  0  0  0  0  0  0  0  0  0
   16.9414   -7.7070    0.7058 H   0  0  0  0  0  0  0  0  0  0  0  0
   15.6975   -8.6840   -1.2146 H   0  0  0  0  0  0  0  0  0  0  0  0
   13.2120   -7.0086   -4.5593 H   0  0  0  0  0  0  0  0  0  0  0  0
   14.5141   -4.7528   -2.4388 H   0  0  0  0  0  0  0  0  0  0  0  0
   13.1514   -4.4856   -0.1320 H   0  0  0  0  0  0  0  0  0  0  0  0
   11.2710   -2.5811    0.2024 H   0  0  0  0  0  0  0  0  0  0  0  0
   29.1781   -0.0168   -0.0281 Fe  0  0  0  0  0  0  0  0  0  0  0  0
   32.5651   -0.0622    0.1468 C   0  0  0  0  0  0  0  0  0  0  0  0
   31.9230   -1.2229   -0.2318 C   0  0  0  0  0  0  0  0  0  0  0  0
   32.6089   -2.4280   -0.5890 C   0  0  0  0  0  0  0  0  0  0  0  0
   31.6570   -3.3633   -0.8150 C   0  0  0  0  0  0  0  0  0  0  0  0
   30.3906   -2.7295   -0.5854 C   0  0  0  0  0  0  0  0  0  0  0  0
   30.5659   -1.4124   -0.2583 N   0  0  0  0  0  0  0  0  0  0  0  0
   29.1689   -3.3896   -0.6529 C   0  0  0  0  0  0  0  0  0  0  0  0
   29.1672   -4.8462   -0.9316 C   0  0  0  0  0  0  0  0  0  0  0  0
   29.7622   -5.7349   -0.0409 C   0  0  0  0  0  0  0  0  0  0  0  0
   29.7557   -7.1049   -0.3002 C   0  0  0  0  0  0  0  0  0  0  0  0
   30.3979   -8.0036    0.6922 C   0  0  0  0  0  0  0  0  0  0  0  0
   30.3169   -9.3026    0.3695 O   0  0  0  0  0  0  0  0  0  0  0  0
   30.9439   -7.6267    1.6972 O   0  0  0  0  0  0  0  0  0  0  0  0
   29.1580   -7.5937   -1.4617 C   0  0  0  0  0  0  0  0  0  0  0  0
   28.5690   -6.7097   -2.3521 C   0  0  0  0  0  0  0  0  0  0  0  0
   28.5689   -5.3469   -2.0900 C   0  0  0  0  0  0  0  0  0  0  0  0
   27.9521   -2.7489   -0.4683 C   0  0  0  0  0  0  0  0  0  0  0  0
   26.6856   -3.4182   -0.4907 C   0  0  0  0  0  0  0  0  0  0  0  0
   25.7364   -2.4620   -0.3488 C   0  0  0  0  0  0  0  0  0  0  0  0
   27.7758   -1.3999   -0.2721 N   0  0  0  0  0  0  0  0  0  0  0  0
   26.4256   -1.2156   -0.2304 C   0  0  0  0  0  0  0  0  0  0  0  0
   25.7670    0.0164   -0.1349 C   0  0  0  0  0  0  0  0  0  0  0  0
   26.4443    1.2341    0.0048 C   0  0  0  0  0  0  0  0  0  0  0  0
   25.7775    2.4972    0.0568 C   0  0  0  0  0  0  0  0  0  0  0  0
   26.7334    3.4317    0.2771 C   0  0  0  0  0  0  0  0  0  0  0  0
   27.9806    2.7326    0.3687 C   0  0  0  0  0  0  0  0  0  0  0  0
   27.7889    1.3862    0.1689 N   0  0  0  0  0  0  0  0  0  0  0  0
   29.1917    3.3447    0.6590 C   0  0  0  0  0  0  0  0  0  0  0  0
   29.2008    4.8007    0.9412 C   0  0  0  0  0  0  0  0  0  0  0  0
   28.5130    5.3122    2.0436 C   0  0  0  0  0  0  0  0  0  0  0  0
   28.5252    6.6735    2.3141 C   0  0  0  0  0  0  0  0  0  0  0  0
   29.2183    7.5401    1.4856 C   0  0  0  0  0  0  0  0  0  0  0  0
   29.9070    7.0408    0.3791 C   0  0  0  0  0  0  0  0  0  0  0  0
   30.6358    8.0024   -0.4861 C   0  0  0  0  0  0  0  0  0  0  0  0
   31.2794    7.4224   -1.5094 O   0  0  0  0  0  0  0  0  0  0  0  0
   30.6630    9.1928   -0.3054 O   0  0  0  0  0  0  0  0  0  0  0  0
   29.8995    5.6736    0.1102 C   0  0  0  0  0  0  0  0  0  0  0  0
   30.3988    2.6556    0.6964 C   0  0  0  0  0  0  0  0  0  0  0  0
   31.6560    3.2600    1.0317 C   0  0  0  0  0  0  0  0  0  0  0  0
   32.6015    2.3025    0.8853 C   0  0  0  0  0  0  0  0  0  0  0  0
   31.9200    1.1132    0.4714 C   0  0  0  0  0  0  0  0  0  0  0  0
   30.5697    1.3322    0.3923 N   0  0  0  0  0  0  0  0  0  0  0  0
   33.6482   -0.0744    0.1924 H   0  0  0  0  0  0  0  0  0  0  0  0
   33.6809   -2.5255   -0.6533 H   0  0  0  0  0  0  0  0  0  0  0  0
   31.7870   -4.3909   -1.1135 H   0  0  0  0  0  0  0  0  0  0  0  0
   30.2226   -5.3728    0.8718 H   0  0  0  0  0  0  0  0  0  0  0  0
   30.7548   -9.8209    1.0643 H   0  0  0  0  0  0  0  0  0  0  0  0
   29.1572   -8.6581   -1.6630 H   0  0  0  0  0  0  0  0  0  0  0  0
   28.1059   -7.0828   -3.2585 H   0  0  0  0  0  0  0  0  0  0  0  0
   28.1145   -4.6592   -2.7944 H   0  0  0  0  0  0  0  0  0  0  0  0
   26.5504   -4.4822   -0.5963 H   0  0  0  0  0  0  0  0  0  0  0  0
   24.6646   -2.5756   -0.3247 H   0  0  0  0  0  0  0  0  0  0  0  0
   24.7151    2.6355   -0.0637 H   0  0  0  0  0  0  0  0  0  0  0  0
   26.6158    4.4997    0.3631 H   0  0  0  0  0  0  0  0  0  0  0  0
   27.9792    4.6333    2.6990 H   0  0  0  0  0  0  0  0  0  0  0  0
   27.9916    7.0562    3.1767 H   0  0  0  0  0  0  0  0  0  0  0  0
   29.2372    8.6063    1.6815 H   0  0  0  0  0  0  0  0  0  0  0  0
   31.7277    8.1135   -2.0235 H   0  0  0  0  0  0  0  0  0  0  0  0
   30.4256    5.2893   -0.7556 H   0  0  0  0  0  0  0  0  0  0  0  0
   31.7852    4.2844    1.3411 H   0  0  0  0  0  0  0  0  0  0  0  0
   33.6665    2.3754    1.0381 H   0  0  0  0  0  0  0  0  0  0  0  0
   21.7962    0.0322   -0.1883 C   0  0  0  0  0  0  0  0  0  0  0  0
   20.5724    0.0282   -0.1729 C   0  0  0  0  0  0  0  0  0  0  0  0
   23.1427    0.0305   -0.1879 C   0  0  0  0  0  0  0  0  0  0  0  0
   24.3665    0.0290   -0.1727 C   0  0  0  0  0  0  0  0  0  0  0  0
  2  3  4  0  0  0  0
  3  4  4  0  0  0  0
  4  5  2  0  0  0  0
  5  6  4  0  0  0  0
  1  7  1  0  0  0  0
  3  7  4  0  0  0  0
  6  7  4  0  0  0  0
  6  8  4  0  0  0  0
  8  9  1  0  0  0  0
  9 10  4  0  0  0  0
 10 11  4  0  0  0  0
 11 12  1  0  0  0  0
 12 13  4  0  0  0  0
 12 14  2  0  0  0  0
 11 15  4  0  0  0  0
 15 16  4  0  0  0  0
  9 17  4  0  0  0  0
 16 17  4  0  0  0  0
  8 18  4  0  0  0  0
 18 19  4  0  0  0  0
 19 20  2  0  0  0  0
  1 21  1  0  0  0  0
 18 21  4  0  0  0  0
 20 22  4  0  0  0  0
 21 22  4  0  0  0  0
 22 23  4  0  0  0  0
 23 24  4  0  0  0  0
 24 25  4  0  0  0  0
 25 26  2  0  0  0  0
 26 27  4  0  0  0  0
  1 28  1  0  0  0  0
 24 28  4  0  0  0  0
 27 28  4  0  0  0  0
 27 29  4  0  0  0  0
 29 30  1  0  0  0  0
 30 31  4  0  0  0  0
 31 32  4  0  0  0  0
 32 33  4  0  0  0  0
 33 34  4  0  0  0  0
 34 35  1  0  0  0  0
 35 36  4  0  0  0  0
 35 37  2  0  0  0  0
 30 38  4  0  0  0  0
 34 38  4  0  0  0  0
 29 39  4  0  0  0  0
 39 40  4  0  0  0  0
 40 41  2  0  0  0  0
  2 42  4  0  0  0  0
 41 42  4  0  0  0  0
  1 43  1  0  0  0  0
 39 43  4  0  0  0  0
 42 43  4  0  0  0  0
  2 44  1  0  0  0  0
  4 45  1  0  0  0  0
  5 46  1  0  0  0  0
 10 47  1  0  0  0  0
 13 48  1  0  0  0  0
 15 49  1  0  0  0  0
 16 50  1  0  0  0  0
 17 51  1  0  0  0  0
 19 52  1  0  0  0  0
 20 53  1  0  0  0  0
 25 54  1  0  0  0  0
 26 55  1  0  0  0  0
 31 56  1  0  0  0  0
 32 57  1  0  0  0  0
 33 58  1  0  0  0  0
 36 59  1  0  0  0  0
 38 60  1  0  0  0  0
 40 61  1  0  0  0  0
 41 62  1  0  0  0  0
 64 65  4  0  0  0  0
 65 66  4  0  0  0  0
 66 67  2  0  0  0  0
 67 68  4  0  0  0  0
 63 69  1  0  0  0  0
 65 69  4  0  0  0  0
 68 69  4  0  0  0  0
 68 70  4  0  0  0  0
 70 71  1  0  0  0  0
 71 72  4  0  0  0  0
 72 73  4  0  0  0  0
 73 74  1  0  0  0  0
 74 75  4  0  0  0  0
 74 76  2  0  0  0  0
 73 77  4  0  0  0  0
 77 78  4  0  0  0  0
 71 79  4  0  0  0  0
 78 79  4  0  0  0  0
 70 80  4  0  0  0  0
 80 81  4  0  0  0  0
 81 82  2  0  0  0  0
 63 83  1  0  0  0  0
 80 83  4  0  0  0  0
 82 84  4  0  0  0  0
 83 84  4  0  0  0  0
 84 85  4  0  0  0  0
 85 86  4  0  0  0  0
 86 87  4  0  0  0  0
 87 88  2  0  0  0  0
 88 89  4  0  0  0  0
 63 90  1  0  0  0  0
 86 90  4  0  0  0  0
 89 90  4  0  0  0  0
 89 91  4  0  0  0  0
 91 92  1  0  0  0  0
 92 93  4  0  0  0  0
 93 94  4  0  0  0  0
 94 95  4  0  0  0  0
 95 96  4  0  0  0  0
 96 97  1  0  0  0  0
 97 98  4  0  0  0  0
 97 99  2  0  0  0  0
 92100  4  0  0  0  0
 96100  4  0  0  0  0
 91101  4  0  0  0  0
101102  4  0  0  0  0
102103  2  0  0  0  0
 64104  4  0  0  0  0
103104  4  0  0  0  0
 63105  1  0  0  0  0
101105  4  0  0  0  0
104105  4  0  0  0  0
 64106  1  0  0  0  0
 66107  1  0  0  0  0
 67108  1  0  0  0  0
 72109  1  0  0  0  0
 75110  1  0  0  0  0
 77111  1  0  0  0  0
 78112  1  0  0  0  0
 79113  1  0  0  0  0
 81114  1  0  0  0  0
 82115  1  0  0  0  0
 87116  1  0  0  0  0
 88117  1  0  0  0  0
 93118  1  0  0  0  0
 94119  1  0  0  0  0
 95120  1  0  0  0  0
 98121  1  0  0  0  0
100122  1  0  0  0  0
102123  1  0  0  0  0
103124  1  0  0  0  0
 23126  4  0  0  0  0
125126  3  0  0  0  0
125127  4  0  0  0  0
 85128  4  0  0  0  0
127128  3  0  0  0  0
M  END
