 xtb: 6.5.1 (b24c23e)
          07292220343D

122141  0     0  0            999 V2000
   14.3083   -0.0290   -0.0904 Fe  0  0  0  0  0  0  0  0  0  0  0  0
   10.9248   -0.0799   -0.2244 C   0  0  0  0  0  0  0  0  0  0  0  0
   11.5880   -1.2896   -0.2431 C   0  0  0  0  0  0  0  0  0  0  0  0
   10.9213   -2.5548   -0.3073 C   0  0  0  0  0  0  0  0  0  0  0  0
   11.8766   -3.5037   -0.1658 C   0  0  0  0  0  0  0  0  0  0  0  0
   13.1287   -2.8164   -0.0350 C   0  0  0  0  0  0  0  0  0  0  0  0
   12.9393   -1.4623   -0.0929 N   0  0  0  0  0  0  0  0  0  0  0  0
   14.3441   -3.4518    0.1994 C   0  0  0  0  0  0  0  0  0  0  0  0
   14.3628   -4.9294    0.3262 C   0  0  0  0  0  0  0  0  0  0  0  0
   14.0209   -5.7388   -0.7570 C   0  0  0  0  0  0  0  0  0  0  0  0
   14.0460   -7.1203   -0.6432 C   0  0  0  0  0  0  0  0  0  0  0  0
   14.4085   -7.7076    0.5667 C   0  0  0  0  0  0  0  0  0  0  0  0
   14.4429   -9.0559    0.7230 O   0  0  0  0  0  0  0  0  0  0  0  0
   14.7494   -6.9093    1.6572 C   0  0  0  0  0  0  0  0  0  0  0  0
   14.7299   -5.5315    1.5317 C   0  0  0  0  0  0  0  0  0  0  0  0
   15.5456   -2.7647    0.2969 C   0  0  0  0  0  0  0  0  0  0  0  0
   16.8170   -3.4066    0.4526 C   0  0  0  0  0  0  0  0  0  0  0  0
   17.7588   -2.4379    0.3553 C   0  0  0  0  0  0  0  0  0  0  0  0
   15.7129   -1.4094    0.1341 N   0  0  0  0  0  0  0  0  0  0  0  0
   17.0608   -1.2085    0.1462 C   0  0  0  0  0  0  0  0  0  0  0  0
   17.7124    0.0150   -0.0562 C   0  0  0  0  0  0  0  0  0  0  0  0
   17.0292    1.2276   -0.2093 C   0  0  0  0  0  0  0  0  0  0  0  0
   17.6926    2.4784   -0.4031 C   0  0  0  0  0  0  0  0  0  0  0  0
   16.7295    3.4315   -0.4051 C   0  0  0  0  0  0  0  0  0  0  0  0
   15.4801    2.7576   -0.2123 C   0  0  0  0  0  0  0  0  0  0  0  0
   15.6799    1.4012   -0.1204 N   0  0  0  0  0  0  0  0  0  0  0  0
   14.2558    3.4068   -0.1233 C   0  0  0  0  0  0  0  0  0  0  0  0
   14.2379    4.8880   -0.1435 C   0  0  0  0  0  0  0  0  0  0  0  0
   14.8954    5.6172    0.8506 C   0  0  0  0  0  0  0  0  0  0  0  0
   14.8817    7.0005    0.8408 C   0  0  0  0  0  0  0  0  0  0  0  0
   14.2135    7.6781   -0.1776 C   0  0  0  0  0  0  0  0  0  0  0  0
   14.2240    9.0354   -0.1595 O   0  0  0  0  0  0  0  0  0  0  0  0
   13.5590    6.9644   -1.1791 C   0  0  0  0  0  0  0  0  0  0  0  0
   13.5701    5.5785   -1.1557 C   0  0  0  0  0  0  0  0  0  0  0  0
   13.0469    2.7233   -0.0396 C   0  0  0  0  0  0  0  0  0  0  0  0
   11.7673    3.3647    0.0543 C   0  0  0  0  0  0  0  0  0  0  0  0
   10.8336    2.3857   -0.0005 C   0  0  0  0  0  0  0  0  0  0  0  0
   11.5439    1.1473   -0.1042 C   0  0  0  0  0  0  0  0  0  0  0  0
   12.8969    1.3633   -0.0902 N   0  0  0  0  0  0  0  0  0  0  0  0
    9.8422   -0.0962   -0.2825 H   0  0  0  0  0  0  0  0  0  0  0  0
    9.8569   -2.6804   -0.4275 H   0  0  0  0  0  0  0  0  0  0  0  0
   11.7541   -4.5743   -0.1392 H   0  0  0  0  0  0  0  0  0  0  0  0
   13.7514   -5.2824   -1.7029 H   0  0  0  0  0  0  0  0  0  0  0  0
   13.7871   -7.7456   -1.4910 H   0  0  0  0  0  0  0  0  0  0  0  0
   14.1898   -9.5119   -0.0908 H   0  0  0  0  0  0  0  0  0  0  0  0
   15.0265   -7.3798    2.5925 H   0  0  0  0  0  0  0  0  0  0  0  0
   14.9865   -4.9098    2.3821 H   0  0  0  0  0  0  0  0  0  0  0  0
   16.9618   -4.4651    0.5938 H   0  0  0  0  0  0  0  0  0  0  0  0
   18.8312   -2.5333    0.4112 H   0  0  0  0  0  0  0  0  0  0  0  0
   18.7580    2.5966   -0.5187 H   0  0  0  0  0  0  0  0  0  0  0  0
   16.8443    4.4949   -0.5384 H   0  0  0  0  0  0  0  0  0  0  0  0
   15.4062    5.0899    1.6485 H   0  0  0  0  0  0  0  0  0  0  0  0
   15.3834    7.5682    1.6147 H   0  0  0  0  0  0  0  0  0  0  0  0
   13.7327    9.4024   -0.9067 H   0  0  0  0  0  0  0  0  0  0  0  0
   13.0456    7.4959   -1.9732 H   0  0  0  0  0  0  0  0  0  0  0  0
   13.0723    5.0246   -1.9439 H   0  0  0  0  0  0  0  0  0  0  0  0
   11.6148    4.4272    0.1526 H   0  0  0  0  0  0  0  0  0  0  0  0
    9.7593    2.4742    0.0328 H   0  0  0  0  0  0  0  0  0  0  0  0
   30.2791    0.0152   -0.0945 Fe  0  0  0  0  0  0  0  0  0  0  0  0
   33.6625    0.0465   -0.2337 C   0  0  0  0  0  0  0  0  0  0  0  0
   32.9992    1.2408   -0.4261 C   0  0  0  0  0  0  0  0  0  0  0  0
   33.6659    2.4837   -0.6715 C   0  0  0  0  0  0  0  0  0  0  0  0
   32.7107    3.4431   -0.6674 C   0  0  0  0  0  0  0  0  0  0  0  0
   31.4586    2.7817   -0.4391 C   0  0  0  0  0  0  0  0  0  0  0  0
   31.6480    1.4333   -0.3021 N   0  0  0  0  0  0  0  0  0  0  0  0
   30.2433    3.4442   -0.2979 C   0  0  0  0  0  0  0  0  0  0  0  0
   30.2246    4.9246   -0.3840 C   0  0  0  0  0  0  0  0  0  0  0  0
   30.5671    5.5706   -1.5718 C   0  0  0  0  0  0  0  0  0  0  0  0
   30.5423    6.9541   -1.6571 C   0  0  0  0  0  0  0  0  0  0  0  0
   30.1795    7.7087   -0.5438 C   0  0  0  0  0  0  0  0  0  0  0  0
   30.1455    9.0655   -0.5822 O   0  0  0  0  0  0  0  0  0  0  0  0
   29.8378    7.0749    0.6495 C   0  0  0  0  0  0  0  0  0  0  0  0
   29.8570    5.6933    0.7227 C   0  0  0  0  0  0  0  0  0  0  0  0
   29.0418    2.7781   -0.1029 C   0  0  0  0  0  0  0  0  0  0  0  0
   27.7703    3.4355   -0.0408 C   0  0  0  0  0  0  0  0  0  0  0  0
   26.8285    2.4628    0.0010 C   0  0  0  0  0  0  0  0  0  0  0  0
   28.8745    1.4134   -0.0702 N   0  0  0  0  0  0  0  0  0  0  0  0
   27.5267    1.2162   -0.0302 C   0  0  0  0  0  0  0  0  0  0  0  0
   26.8751   -0.0237   -0.0560 C   0  0  0  0  0  0  0  0  0  0  0  0
   27.5583   -1.2457   -0.0333 C   0  0  0  0  0  0  0  0  0  0  0  0
   26.8950   -2.5114   -0.0458 C   0  0  0  0  0  0  0  0  0  0  0  0
   27.8581   -3.4549    0.0897 C   0  0  0  0  0  0  0  0  0  0  0  0
   29.1074   -2.7601    0.1846 C   0  0  0  0  0  0  0  0  0  0  0  0
   28.9076   -1.4046    0.0807 N   0  0  0  0  0  0  0  0  0  0  0  0
   30.3316   -3.3897    0.3667 C   0  0  0  0  0  0  0  0  0  0  0  0
   30.3496   -4.8584    0.5596 C   0  0  0  0  0  0  0  0  0  0  0  0
   29.6918   -5.4372    1.6481 C   0  0  0  0  0  0  0  0  0  0  0  0
   29.7057   -6.8075    1.8373 C   0  0  0  0  0  0  0  0  0  0  0  0
   30.3742   -7.6244    0.9271 C   0  0  0  0  0  0  0  0  0  0  0  0
   30.3637   -8.9650    1.1401 O   0  0  0  0  0  0  0  0  0  0  0  0
   31.0288   -7.0621   -0.1665 C   0  0  0  0  0  0  0  0  0  0  0  0
   31.0176   -5.6872   -0.3427 C   0  0  0  0  0  0  0  0  0  0  0  0
   31.5405   -2.7012    0.3517 C   0  0  0  0  0  0  0  0  0  0  0  0
   32.8200   -3.3224    0.5372 C   0  0  0  0  0  0  0  0  0  0  0  0
   33.7538   -2.3614    0.3425 C   0  0  0  0  0  0  0  0  0  0  0  0
   33.0434   -1.1508    0.0617 C   0  0  0  0  0  0  0  0  0  0  0  0
   31.6904   -1.3626    0.1063 N   0  0  0  0  0  0  0  0  0  0  0  0
   34.7451    0.0543   -0.2934 H   0  0  0  0  0  0  0  0  0  0  0  0
   34.7303    2.5907   -0.8087 H   0  0  0  0  0  0  0  0  0  0  0  0
   32.8332    4.5064   -0.7948 H   0  0  0  0  0  0  0  0  0  0  0  0
   30.8367    4.9834   -2.4426 H   0  0  0  0  0  0  0  0  0  0  0  0
   30.8018    7.4515   -2.5855 H   0  0  0  0  0  0  0  0  0  0  0  0
   30.3995    9.4003   -1.4528 H   0  0  0  0  0  0  0  0  0  0  0  0
   29.5604    7.6745    1.5076 H   0  0  0  0  0  0  0  0  0  0  0  0
   29.6000    5.1998    1.6532 H   0  0  0  0  0  0  0  0  0  0  0  0
   27.6254    4.5034   -0.0523 H   0  0  0  0  0  0  0  0  0  0  0  0
   25.7562    2.5651    0.0425 H   0  0  0  0  0  0  0  0  0  0  0  0
   25.8298   -2.6451   -0.1441 H   0  0  0  0  0  0  0  0  0  0  0  0
   27.7434   -4.5263    0.1105 H   0  0  0  0  0  0  0  0  0  0  0  0
   29.1809   -4.8007    2.3618 H   0  0  0  0  0  0  0  0  0  0  0  0
   29.2039   -7.2581    2.6847 H   0  0  0  0  0  0  0  0  0  0  0  0
   30.8551   -9.4356    0.4535 H   0  0  0  0  0  0  0  0  0  0  0  0
   31.5424   -7.7022   -0.8758 H   0  0  0  0  0  0  0  0  0  0  0  0
   31.5155   -5.2524   -1.2022 H   0  0  0  0  0  0  0  0  0  0  0  0
   32.9726   -4.3598    0.7872 H   0  0  0  0  0  0  0  0  0  0  0  0
   34.8281   -2.4441    0.3884 H   0  0  0  0  0  0  0  0  0  0  0  0
   22.9089   -0.0190   -0.1088 C   0  0  0  0  0  0  0  0  0  0  0  0
   21.6786   -0.0009   -0.1087 C   0  0  0  0  0  0  0  0  0  0  0  0
   20.3379    0.0122   -0.0986 C   0  0  0  0  0  0  0  0  0  0  0  0
   19.1122    0.0237   -0.0848 C   0  0  0  0  0  0  0  0  0  0  0  0
   24.2496   -0.0287   -0.0997 C   0  0  0  0  0  0  0  0  0  0  0  0
   25.4753   -0.0364   -0.0829 C   0  0  0  0  0  0  0  0  0  0  0  0
  2  3  4  0  0  0  0
  3  4  4  0  0  0  0
  4  5  2  0  0  0  0
  5  6  4  0  0  0  0
  1  7  1  0  0  0  0
  3  7  4  0  0  0  0
  6  7  4  0  0  0  0
  6  8  4  0  0  0  0
  8  9  1  0  0  0  0
  9 10  4  0  0  0  0
 10 11  4  0  0  0  0
 11 12  4  0  0  0  0
 12 13  1  0  0  0  0
 12 14  4  0  0  0  0
  9 15  4  0  0  0  0
 14 15  4  0  0  0  0
  8 16  4  0  0  0  0
 16 17  4  0  0  0  0
 17 18  2  0  0  0  0
  1 19  1  0  0  0  0
 16 19  4  0  0  0  0
 18 20  4  0  0  0  0
 19 20  4  0  0  0  0
 20 21  4  0  0  0  0
 21 22  4  0  0  0  0
 22 23  4  0  0  0  0
 23 24  2  0  0  0  0
 24 25  4  0  0  0  0
  1 26  1  0  0  0  0
 22 26  4  0  0  0  0
 25 26  4  0  0  0  0
 25 27  4  0  0  0  0
 27 28  1  0  0  0  0
 28 29  4  0  0  0  0
 29 30  4  0  0  0  0
 30 31  4  0  0  0  0
 31 32  1  0  0  0  0
 31 33  4  0  0  0  0
 28 34  4  0  0  0  0
 33 34  4  0  0  0  0
 27 35  4  0  0  0  0
 35 36  4  0  0  0  0
 36 37  2  0  0  0  0
  2 38  4  0  0  0  0
 37 38  4  0  0  0  0
  1 39  1  0  0  0  0
 35 39  4  0  0  0  0
 38 39  4  0  0  0  0
  2 40  1  0  0  0  0
  4 41  1  0  0  0  0
  5 42  1  0  0  0  0
 10 43  1  0  0  0  0
 11 44  1  0  0  0  0
 13 45  1  0  0  0  0
 14 46  1  0  0  0  0
 15 47  1  0  0  0  0
 17 48  1  0  0  0  0
 18 49  1  0  0  0  0
 23 50  1  0  0  0  0
 24 51  1  0  0  0  0
 29 52  1  0  0  0  0
 30 53  1  0  0  0  0
 32 54  1  0  0  0  0
 33 55  1  0  0  0  0
 34 56  1  0  0  0  0
 36 57  1  0  0  0  0
 37 58  1  0  0  0  0
 60 61  4  0  0  0  0
 61 62  4  0  0  0  0
 62 63  2  0  0  0  0
 63 64  4  0  0  0  0
 59 65  1  0  0  0  0
 61 65  4  0  0  0  0
 64 65  4  0  0  0  0
 64 66  4  0  0  0  0
 66 67  1  0  0  0  0
 67 68  4  0  0  0  0
 68 69  4  0  0  0  0
 69 70  4  0  0  0  0
 70 71  1  0  0  0  0
 70 72  4  0  0  0  0
 67 73  4  0  0  0  0
 72 73  4  0  0  0  0
 66 74  4  0  0  0  0
 74 75  4  0  0  0  0
 75 76  2  0  0  0  0
 59 77  1  0  0  0  0
 74 77  4  0  0  0  0
 76 78  4  0  0  0  0
 77 78  4  0  0  0  0
 78 79  4  0  0  0  0
 79 80  4  0  0  0  0
 80 81  4  0  0  0  0
 81 82  2  0  0  0  0
 82 83  4  0  0  0  0
 59 84  1  0  0  0  0
 80 84  4  0  0  0  0
 83 84  4  0  0  0  0
 83 85  4  0  0  0  0
 85 86  1  0  0  0  0
 86 87  4  0  0  0  0
 87 88  4  0  0  0  0
 88 89  4  0  0  0  0
 89 90  1  0  0  0  0
 89 91  4  0  0  0  0
 86 92  4  0  0  0  0
 91 92  4  0  0  0  0
 85 93  4  0  0  0  0
 93 94  4  0  0  0  0
 94 95  2  0  0  0  0
 60 96  4  0  0  0  0
 95 96  4  0  0  0  0
 59 97  1  0  0  0  0
 93 97  4  0  0  0  0
 96 97  4  0  0  0  0
 60 98  1  0  0  0  0
 62 99  1  0  0  0  0
 63100  1  0  0  0  0
 68101  1  0  0  0  0
 69102  1  0  0  0  0
 71103  1  0  0  0  0
 72104  1  0  0  0  0
 73105  1  0  0  0  0
 75106  1  0  0  0  0
 76107  1  0  0  0  0
 81108  1  0  0  0  0
 82109  1  0  0  0  0
 87110  1  0  0  0  0
 88111  1  0  0  0  0
 90112  1  0  0  0  0
 91113  1  0  0  0  0
 92114  1  0  0  0  0
 94115  1  0  0  0  0
 95116  1  0  0  0  0
117118  3  0  0  0  0
118119  4  0  0  0  0
 21120  4  0  0  0  0
119120  3  0  0  0  0
117121  4  0  0  0  0
 79122  4  0  0  0  0
121122  3  0  0  0  0
M  END
