130

C 10.035940 -0.018987 -0.144726
C 10.768255 -1.384082 0.033103
C 10.168173 -2.622200 0.056872
C 11.191561 -3.575049 0.299319
C 12.381224 -2.883961 0.424053
N 12.118217 -1.555095 0.204849
C 13.798358 -3.495383 0.781608
C 13.831160 -4.882189 1.297444
C 14.132549 -5.946639 0.436793
C 14.157509 -7.256784 0.917630
C 13.876159 -7.496228 2.269845
N 13.899851 -8.871027 2.781222
O 14.169301 -9.784584 1.985594
O 13.647129 -9.051142 3.982774
C 13.571774 -6.440077 3.139695
C 13.550291 -5.134222 2.646920
C 14.929220 -2.749379 0.663982
C 16.228660 -3.261650 1.049043
C 17.131548 -2.309072 0.847692
N 15.129074 -1.467889 0.225005
C 16.457777 -1.142773 0.312492
C 17.126169 -0.000961 -0.000672
C 16.350539 1.242095 -0.607897
C 16.890624 2.230692 -1.406674
C 15.864687 3.171198 -1.674566
C 14.725486 2.725257 -1.039061
N 15.016489 1.522445 -0.440541
C 13.317370 3.451813 -1.018130
C 13.291644 4.914860 -1.226722
C 12.930115 5.445821 -2.472701
C 12.914870 6.826991 -2.673861
C 13.267879 7.677327 -1.616993
N 13.253666 9.129903 -1.821590
O 12.939120 9.557653 -2.943411
O 13.557730 9.857344 -0.863234
C 13.634561 7.158411 -0.367712
C 13.645438 5.775188 -0.179196
C 12.188876 2.732716 -0.787609
C 10.866492 3.331809 -0.742398
C 9.979275 2.368349 -0.512525
C 10.700630 1.125621 -0.389784
N 12.022677 1.396675 -0.554793
H 8.957262 -0.004059 -0.044045
H 9.114004 -2.815834 -0.069222
H 11.067254 -4.642709 0.396970
H 12.814232 -0.814052 0.175943
H 14.351616 -5.734506 -0.608571
H 14.397208 -8.063357 0.230460
H 13.352307 -6.607669 4.190419
H 13.318788 -4.297112 3.303780
H 16.439583 -4.239166 1.443599
H 18.182123 -2.409473 1.050884
H 17.912704 2.279036 -1.750686
H 15.950426 4.073345 -2.260869
H 14.333793 0.913054 0.002342
H 12.656863 4.764662 -3.277259
H 12.627085 7.212248 -3.647982
H 13.911386 7.802773 0.462030
H 13.926006 5.349545 0.783036
H 10.635567 4.373619 -0.870332
H 8.914772 2.488228 -0.422649
C 35.264262 -0.059435 -0.133553
C 34.531947 1.203378 -0.681650
C 35.132029 2.278139 -1.296783
C 34.108641 3.220330 -1.577816
C 32.918978 2.691260 -1.116030
N 33.181985 1.438301 -0.622039
C 31.501844 3.399521 -1.123020
C 31.469043 4.854468 -1.392182
C 31.167654 5.326209 -2.677186
C 31.142694 6.697399 -2.937033
C 31.424043 7.596991 -1.899461
N 31.400351 9.039344 -2.166287
O 31.130901 9.414964 -3.318033
O 31.653073 9.810683 -1.227562
C 31.728429 7.137095 -0.610824
C 31.749912 5.763458 -0.363423
C 30.370982 2.698918 -0.841040
C 29.071543 3.336206 -0.773529
C 28.168655 2.415344 -0.457367
N 30.171129 1.373806 -0.559977
C 28.842425 1.139697 -0.318011
C 28.174034 -0.000961 -0.000672
C 28.949664 -1.379451 0.116271
C 28.409579 -2.637888 -0.061792
C 29.435516 -3.582546 0.191069
C 30.574716 -2.873629 0.507559
N 30.283714 -1.534144 0.403802
C 31.982832 -3.486419 0.898467
C 32.008558 -4.849086 1.470442
C 32.370087 -5.944328 0.673680
C 32.385332 -7.232913 1.210006
C 32.032324 -7.420180 2.553499
N 32.046536 -8.771811 3.123527
O 32.361082 -9.714745 2.380340
O 31.742472 -8.904176 4.319394
C 31.665641 -6.333581 3.359277
C 31.654765 -5.049724 2.811047
C 33.111327 -2.750958 0.727185
C 34.433711 -3.241897 1.073503
C 35.320927 -2.297055 0.776232
C 34.599572 -1.167533 0.243671
N 33.277526 -1.484854 0.241192
H 36.342940 -0.020566 -0.039485
H 36.186198 2.379593 -1.504391
H 34.232949 4.186726 -2.042047
H 32.485970 0.787496 -0.266464
H 30.948586 4.607564 -3.465434
H 30.902994 7.036877 -3.940785
H 31.947896 7.820265 0.204888
H 31.981415 5.382214 0.629991
H 28.860620 4.377644 -0.936684
H 27.118080 2.605807 -0.334523
H 27.387499 -2.855960 -0.332210
H 29.349777 -4.657726 0.150977
H 30.966410 -0.783828 0.471084
H 32.643340 -5.772737 -0.366438
H 32.673117 -8.063564 0.571764
H 31.388816 -6.460665 4.402121
H 31.374197 -4.190516 3.418354
H 34.664635 -4.201653 1.498476
H 36.385431 -2.353801 0.914899
C 18.149738 0.014658 0.010253
C 19.607964 -0.007178 -0.007620
C 20.741892 -0.027932 -0.009111
C 22.103274 -0.040522 -0.011302
C 23.377493 -0.030216 -0.016067
C 24.565955 -0.011417 -0.022223
C 25.918316 0.013367 -0.006355
C 27.018583 0.014658 0.010253
