148

C 16.094068 0.009854 -0.013331
C 16.818469 -0.078758 1.363773
C 16.198575 -0.111621 2.592763
C 17.219257 -0.229322 3.570155
C 18.430628 -0.262989 2.904147
N 18.173828 -0.148913 1.561262
C 19.862613 -0.440880 3.561632
C 19.915827 -0.712456 5.017569
C 20.114272 0.325767 5.925689
C 20.149101 0.068045 7.304137
C 19.972783 -1.226358 7.831828
N 20.012111 -1.474183 9.216955
C 19.715265 -0.356282 10.109163
C 19.598896 -2.789843 9.695107
C 19.799753 -2.256945 6.886955
C 19.763887 -2.008144 5.506362
C 20.990351 -0.371642 2.803138
C 22.301879 -0.598452 3.374258
C 23.204193 -0.496101 2.406205
N 21.182307 -0.119505 1.469096
C 22.519238 -0.179590 1.168207
C 23.192016 -0.000000 -0.000000
C 22.419610 0.391516 -1.332555
C 22.985711 0.948409 -2.464282
C 21.960023 1.096617 -3.428891
C 20.790263 0.640954 -2.856437
N 21.072155 0.251516 -1.567521
C 19.366428 0.596304 -3.558027
C 19.317731 0.744853 -5.029420
C 19.142072 1.999596 -5.610454
C 19.135109 2.141270 -7.005218
C 19.314506 1.044848 -7.871693
N 19.314758 1.210733 -9.271295
C 19.575675 0.040497 -10.104134
C 19.869107 2.469194 -9.770014
C 19.451352 -0.213849 -7.255480
C 19.463686 -0.363858 -5.860499
C 18.244185 0.429326 -2.811101
C 16.915633 0.386290 -3.396857
C 16.031944 0.229778 -2.415956
C 16.760317 0.162413 -1.172761
N 18.084934 0.276499 -1.461421
H 15.012604 -0.061492 -0.021994
H 15.134045 -0.066445 2.765624
H 17.085623 -0.294097 4.640237
H 18.878587 -0.118009 0.828679
H 20.249971 1.337582 5.550318
H 20.326810 0.921920 7.948434
H 18.733064 0.078582 9.890708
H 19.705213 -0.680482 11.156401
H 20.485843 0.419307 10.046168
H 18.551635 -2.992241 9.444379
H 20.237630 -3.581548 9.288771
H 19.696711 -2.858338 10.784586
H 19.683986 -3.291505 7.189731
H 19.623112 -2.825823 4.803020
H 22.519530 -0.825850 4.402851
H 24.262179 -0.622973 2.545202
H 24.024978 1.210071 -2.592324
H 22.063964 1.489139 -4.429565
H 20.379109 -0.051086 -0.887496
H 19.008525 2.867289 -4.967973
H 18.971056 3.141700 -7.390609
H 19.471990 0.292249 -11.165987
H 20.591742 -0.339376 -9.949624
H 18.849413 -0.756971 -9.911740
H 19.224182 3.318016 -9.521623
H 19.940471 2.459175 -10.863390
H 20.877112 2.645047 -9.377462
H 19.569375 -1.121909 -7.835742
H 19.588582 -1.348093 -5.413422
H 16.680816 0.468529 -4.443246
H 14.964426 0.163044 -2.523962
C 33.602135 0.006456 0.015268
C 32.877734 0.242990 -1.344260
C 33.497628 0.499015 -2.546736
C 32.476946 0.613611 -3.524496
C 31.265575 0.424824 -2.884919
N 31.522375 0.221063 -1.552690
C 29.833590 0.405945 -3.565782
C 29.780375 0.483081 -5.044821
C 29.581931 1.705188 -5.684386
C 29.547102 1.777635 -7.084847
C 29.723419 0.642914 -7.901149
N 29.684092 0.726548 -9.305783
C 29.980938 2.022386 -9.911209
C 30.097306 -0.440445 -10.078906
C 29.896450 -0.580380 -7.224065
C 29.932315 -0.662004 -5.823609
C 28.705852 0.295527 -2.812181
C 27.394324 0.208855 -3.420547
C 26.492010 0.081525 -2.455462
N 28.513895 0.228056 -1.456198
C 27.176965 0.099141 -1.177765
C 26.504187 0.000000 0.000000
C 27.276593 0.068376 1.387196
C 26.710492 0.344582 2.617906
C 27.736180 0.262640 3.590387
C 28.905940 -0.046202 2.927101
N 28.624048 -0.122783 1.582816
C 30.329775 -0.254004 3.598696
C 30.378472 -0.454362 5.063934
C 30.554130 0.629302 5.922800
C 30.561094 0.440215 7.311931
C 30.381697 -0.828713 7.897373
N 30.381445 -0.995396 9.296880
C 30.120528 -2.328202 9.832327
C 29.827096 0.111171 10.076593
C 30.244851 -1.907978 7.003381
C 30.232517 -1.726943 5.612086
C 31.452018 -0.241315 2.833440
C 32.780570 -0.420406 3.392804
C 33.664258 -0.342719 2.402537
C 32.935886 -0.116906 1.178168
N 31.611268 -0.073635 1.485524
H 34.683599 -0.064934 0.006973
H 34.562158 0.583438 -2.704199
H 32.610579 0.801377 -4.579966
H 30.817616 0.079450 -0.833260
H 29.446232 2.600879 -5.082380
H 29.369393 2.758708 -7.511130
H 30.963139 2.393956 -9.596940
H 29.990990 1.952598 -11.005258
H 29.210360 2.761623 -9.668234
H 31.144568 -0.695958 -9.882582
H 29.458573 -1.305321 -9.869391
H 29.999491 -0.251750 -11.154103
H 30.012217 -1.515193 -7.760827
H 30.073091 -1.621723 -5.331444
H 27.176673 0.228805 -4.473787
H 25.434024 -0.009245 -2.620317
H 25.671225 0.568958 2.803695
H 27.632239 0.409759 4.655177
H 29.317093 -0.257619 0.850818
H 30.687678 1.623383 5.501521
H 30.725146 1.322490 7.921010
H 30.224213 -2.332269 10.923608
H 29.104460 -2.661294 9.593107
H 30.846790 -3.058387 9.458428
H 30.472020 0.994564 10.034011
H 29.755732 -0.154766 11.137183
H 28.819090 0.374110 9.736175
H 30.126828 -2.926723 7.354715
H 30.107621 -2.579020 4.946832
H 33.015387 -0.585643 4.429331
H 34.731777 -0.432903 2.491899
C 24.237143 0.000000 -0.000000
C 25.459060 0.000000 -0.000000
