 xtb: 6.5.1 (b24c23e)
          07302210053D

124147  0     0  0            999 V2000
   15.9260   -0.0467   -0.0116 Zn  0  0  0  0  0  0  0  0  0  0  0  0
   12.5206   -0.0567   -0.1495 C   0  0  0  0  0  0  0  0  0  0  0  0
   13.1500   -1.2829   -0.3246 C   0  0  0  0  0  0  0  0  0  0  0  0
   12.4753   -2.5354   -0.5237 C   0  0  0  0  0  0  0  0  0  0  0  0
   13.4335   -3.4856   -0.6565 C   0  0  0  0  0  0  0  0  0  0  0  0
   14.7068   -2.8222   -0.5512 C   0  0  0  0  0  0  0  0  0  0  0  0
   14.4995   -1.4914   -0.3393 N   0  0  0  0  0  0  0  0  0  0  0  0
   15.9589   -3.4458   -0.6242 C   0  0  0  0  0  0  0  0  0  0  0  0
   15.9727   -4.9039   -0.8888 C   0  0  0  0  0  0  0  0  0  0  0  0
   16.5264   -5.7870    0.0435 C   0  0  0  0  0  0  0  0  0  0  0  0
   16.5388   -7.1485   -0.1977 C   0  0  0  0  0  0  0  0  0  0  0  0
   15.9982   -7.6328   -1.3858 C   0  0  0  0  0  0  0  0  0  0  0  0
   16.0112   -9.0605   -1.6457 N   0  0  0  0  0  0  0  0  0  0  0  0
   15.5306   -9.4438   -2.6817 O   0  0  0  0  0  0  0  0  0  0  0  0
   16.5012   -9.7757   -0.8092 O   0  0  0  0  0  0  0  0  0  0  0  0
   15.4450   -6.7707   -2.3287 C   0  0  0  0  0  0  0  0  0  0  0  0
   15.4319   -5.4116   -2.0744 C   0  0  0  0  0  0  0  0  0  0  0  0
   17.1986   -2.8132   -0.4720 C   0  0  0  0  0  0  0  0  0  0  0  0
   18.4795   -3.4507   -0.6076 C   0  0  0  0  0  0  0  0  0  0  0  0
   19.4237   -2.4970   -0.4051 C   0  0  0  0  0  0  0  0  0  0  0  0
   17.3888   -1.4845   -0.2052 N   0  0  0  0  0  0  0  0  0  0  0  0
   18.7305   -1.2676   -0.1534 C   0  0  0  0  0  0  0  0  0  0  0  0
   19.3595   -0.0346    0.1104 C   0  0  0  0  0  0  0  0  0  0  0  0
   18.7050    1.1924    0.3379 C   0  0  0  0  0  0  0  0  0  0  0  0
   19.3689    2.4246    0.6468 C   0  0  0  0  0  0  0  0  0  0  0  0
   18.4055    3.3705    0.7862 C   0  0  0  0  0  0  0  0  0  0  0  0
   17.1425    2.7257    0.5521 C   0  0  0  0  0  0  0  0  0  0  0  0
   17.3613    1.3995    0.2946 N   0  0  0  0  0  0  0  0  0  0  0  0
   15.8907    3.3504    0.6077 C   0  0  0  0  0  0  0  0  0  0  0  0
   15.8732    4.8083    0.8729 C   0  0  0  0  0  0  0  0  0  0  0  0
   15.2273    5.3128    2.0063 C   0  0  0  0  0  0  0  0  0  0  0  0
   15.2068    6.6722    2.2583 C   0  0  0  0  0  0  0  0  0  0  0  0
   15.8332    7.5379    1.3660 C   0  0  0  0  0  0  0  0  0  0  0  0
   15.8105    8.9661    1.6229 N   0  0  0  0  0  0  0  0  0  0  0  0
   15.2458    9.3455    2.6170 O   0  0  0  0  0  0  0  0  0  0  0  0
   16.3567    9.6855    0.8257 O   0  0  0  0  0  0  0  0  0  0  0  0
   16.4801    7.0570    0.2308 C   0  0  0  0  0  0  0  0  0  0  0  0
   16.4996    5.6952   -0.0085 C   0  0  0  0  0  0  0  0  0  0  0  0
   14.6520    2.7198    0.4331 C   0  0  0  0  0  0  0  0  0  0  0  0
   13.3704    3.3756    0.4365 C   0  0  0  0  0  0  0  0  0  0  0  0
   12.4315    2.4206    0.2242 C   0  0  0  0  0  0  0  0  0  0  0  0
   13.1271    1.1725    0.0774 C   0  0  0  0  0  0  0  0  0  0  0  0
   14.4699    1.3884    0.2017 N   0  0  0  0  0  0  0  0  0  0  0  0
   11.4360   -0.0596   -0.1940 H   0  0  0  0  0  0  0  0  0  0  0  0
   11.4043   -2.6606   -0.5477 H   0  0  0  0  0  0  0  0  0  0  0  0
   13.2949   -4.5452   -0.7999 H   0  0  0  0  0  0  0  0  0  0  0  0
   16.9334   -5.3989    0.9700 H   0  0  0  0  0  0  0  0  0  0  0  0
   16.9592   -7.8405    0.5222 H   0  0  0  0  0  0  0  0  0  0  0  0
   15.0351   -7.1720   -3.2477 H   0  0  0  0  0  0  0  0  0  0  0  0
   15.0153   -4.7294   -2.8063 H   0  0  0  0  0  0  0  0  0  0  0  0
   18.6357   -4.4913   -0.8420 H   0  0  0  0  0  0  0  0  0  0  0  0
   20.4961   -2.6071   -0.4295 H   0  0  0  0  0  0  0  0  0  0  0  0
   20.4359    2.5415    0.7511 H   0  0  0  0  0  0  0  0  0  0  0  0
   18.5366    4.4103    1.0390 H   0  0  0  0  0  0  0  0  0  0  0  0
   14.7538    4.6278    2.7000 H   0  0  0  0  0  0  0  0  0  0  0  0
   14.7141    7.0710    3.1369 H   0  0  0  0  0  0  0  0  0  0  0  0
   16.9565    7.7517   -0.4505 H   0  0  0  0  0  0  0  0  0  0  0  0
   16.9886    5.3099   -0.8957 H   0  0  0  0  0  0  0  0  0  0  0  0
   13.2139    4.4339    0.5708 H   0  0  0  0  0  0  0  0  0  0  0  0
   11.3613    2.5400    0.1623 H   0  0  0  0  0  0  0  0  0  0  0  0
   29.3981    0.0481    0.0076 Zn  0  0  0  0  0  0  0  0  0  0  0  0
   32.8035    0.1092   -0.1162 C   0  0  0  0  0  0  0  0  0  0  0  0
   32.1741    1.3117    0.1810 C   0  0  0  0  0  0  0  0  0  0  0  0
   32.8487    2.5475    0.4654 C   0  0  0  0  0  0  0  0  0  0  0  0
   31.8905    3.4782    0.6985 C   0  0  0  0  0  0  0  0  0  0  0  0
   30.6172    2.8236    0.5477 C   0  0  0  0  0  0  0  0  0  0  0  0
   30.8246    1.5103    0.2456 N   0  0  0  0  0  0  0  0  0  0  0  0
   29.3650    3.4290    0.7136 C   0  0  0  0  0  0  0  0  0  0  0  0
   29.3511    4.8800    1.0149 C   0  0  0  0  0  0  0  0  0  0  0  0
   28.7966    5.3493    2.2098 C   0  0  0  0  0  0  0  0  0  0  0  0
   28.7840    6.7020    2.4966 C   0  0  0  0  0  0  0  0  0  0  0  0
   29.3254    7.5962    1.5770 C   0  0  0  0  0  0  0  0  0  0  0  0
   29.3119    9.0173    1.8711 N   0  0  0  0  0  0  0  0  0  0  0  0
   29.7943    9.7608    1.0551 O   0  0  0  0  0  0  0  0  0  0  0  0
   28.8214    9.3669    2.9144 O   0  0  0  0  0  0  0  0  0  0  0  0
   29.8796    7.1504    0.3802 C   0  0  0  0  0  0  0  0  0  0  0  0
   29.8927    5.7951    0.1065 C   0  0  0  0  0  0  0  0  0  0  0  0
   28.1254    2.7855    0.6171 C   0  0  0  0  0  0  0  0  0  0  0  0
   26.8445    3.4274    0.7294 C   0  0  0  0  0  0  0  0  0  0  0  0
   25.9003    2.4674    0.5590 C   0  0  0  0  0  0  0  0  0  0  0  0
   27.9352    1.4536    0.3666 N   0  0  0  0  0  0  0  0  0  0  0  0
   26.5935    1.2331    0.3329 C   0  0  0  0  0  0  0  0  0  0  0  0
   25.9646   -0.0090    0.1154 C   0  0  0  0  0  0  0  0  0  0  0  0
   26.6192   -1.2316   -0.1340 C   0  0  0  0  0  0  0  0  0  0  0  0
   25.9551   -2.4895   -0.3110 C   0  0  0  0  0  0  0  0  0  0  0  0
   26.9186   -3.4188   -0.5357 C   0  0  0  0  0  0  0  0  0  0  0  0
   28.1817   -2.7334   -0.5100 C   0  0  0  0  0  0  0  0  0  0  0  0
   27.9629   -1.4075   -0.2512 N   0  0  0  0  0  0  0  0  0  0  0  0
   29.4336   -3.3335   -0.6919 C   0  0  0  0  0  0  0  0  0  0  0  0
   29.4511   -4.7843   -0.9931 C   0  0  0  0  0  0  0  0  0  0  0  0
   30.0977   -5.6772   -0.1324 C   0  0  0  0  0  0  0  0  0  0  0  0
   30.1183   -7.0319   -0.4090 C   0  0  0  0  0  0  0  0  0  0  0  0
   29.4912   -7.4995   -1.5607 C   0  0  0  0  0  0  0  0  0  0  0  0
   29.5142   -8.9196   -1.8588 N   0  0  0  0  0  0  0  0  0  0  0  0
   30.0784   -9.6446   -1.0795 O   0  0  0  0  0  0  0  0  0  0  0  0
   28.9679   -9.2872   -2.8676 O   0  0  0  0  0  0  0  0  0  0  0  0
   28.8434   -6.6278   -2.4318 C   0  0  0  0  0  0  0  0  0  0  0  0
   28.8240   -5.2758   -2.1425 C   0  0  0  0  0  0  0  0  0  0  0  0
   30.6723   -2.6834   -0.6169 C   0  0  0  0  0  0  0  0  0  0  0  0
   31.9539   -3.2925   -0.8600 C   0  0  0  0  0  0  0  0  0  0  0  0
   32.8927   -2.3274   -0.6987 C   0  0  0  0  0  0  0  0  0  0  0  0
   32.1970   -1.1155   -0.3665 C   0  0  0  0  0  0  0  0  0  0  0  0
   30.8543   -1.3624   -0.3321 N   0  0  0  0  0  0  0  0  0  0  0  0
   33.8881    0.1285   -0.1565 H   0  0  0  0  0  0  0  0  0  0  0  0
   33.9198    2.6728    0.4897 H   0  0  0  0  0  0  0  0  0  0  0  0
   32.0291    4.5144    0.9624 H   0  0  0  0  0  0  0  0  0  0  0  0
   28.3890    4.6423    2.9230 H   0  0  0  0  0  0  0  0  0  0  0  0
   28.3630    7.0737    3.4230 H   0  0  0  0  0  0  0  0  0  0  0  0
   30.2902    7.8669   -0.3211 H   0  0  0  0  0  0  0  0  0  0  0  0
   30.3099    5.4369   -0.8275 H   0  0  0  0  0  0  0  0  0  0  0  0
   26.6883    4.4801    0.9017 H   0  0  0  0  0  0  0  0  0  0  0  0
   24.8280    2.5787    0.5768 H   0  0  0  0  0  0  0  0  0  0  0  0
   24.8881   -2.6368   -0.2591 H   0  0  0  0  0  0  0  0  0  0  0  0
   26.7873   -4.4775   -0.6915 H   0  0  0  0  0  0  0  0  0  0  0  0
   30.5717   -5.3028    0.7675 H   0  0  0  0  0  0  0  0  0  0  0  0
   30.6116   -7.7312    0.2553 H   0  0  0  0  0  0  0  0  0  0  0  0
   28.3663   -7.0161   -3.3236 H   0  0  0  0  0  0  0  0  0  0  0  0
   28.3344   -4.5857   -2.8199 H   0  0  0  0  0  0  0  0  0  0  0  0
   32.1104   -4.3238   -1.1326 H   0  0  0  0  0  0  0  0  0  0  0  0
   33.9629   -2.4148   -0.8011 H   0  0  0  0  0  0  0  0  0  0  0  0
   21.9872   -0.0297    0.1540 C   0  0  0  0  0  0  0  0  0  0  0  0
   20.7652   -0.0294    0.1431 C   0  0  0  0  0  0  0  0  0  0  0  0
   23.3369   -0.0259    0.1532 C   0  0  0  0  0  0  0  0  0  0  0  0
   24.5588   -0.0259    0.1409 C   0  0  0  0  0  0  0  0  0  0  0  0
  2  3  4  0  0  0  0
  3  4  4  0  0  0  0
  4  5  2  0  0  0  0
  5  6  4  0  0  0  0
  1  7  1  0  0  0  0
  3  7  4  0  0  0  0
  6  7  4  0  0  0  0
  6  8  4  0  0  0  0
  8  9  1  0  0  0  0
  9 10  4  0  0  0  0
 10 11  4  0  0  0  0
 11 12  4  0  0  0  0
 12 13  1  0  0  0  0
 13 14  2  0  0  0  0
 13 15  2  0  0  0  0
 14 15  1  0  0  0  0
 12 16  4  0  0  0  0
  9 17  4  0  0  0  0
 16 17  4  0  0  0  0
  8 18  4  0  0  0  0
 18 19  4  0  0  0  0
 19 20  2  0  0  0  0
  1 21  1  0  0  0  0
 18 21  4  0  0  0  0
 20 22  4  0  0  0  0
 21 22  4  0  0  0  0
 22 23  4  0  0  0  0
 23 24  4  0  0  0  0
 24 25  4  0  0  0  0
 25 26  2  0  0  0  0
 26 27  4  0  0  0  0
  1 28  1  0  0  0  0
 24 28  4  0  0  0  0
 27 28  4  0  0  0  0
 27 29  4  0  0  0  0
 29 30  1  0  0  0  0
 30 31  4  0  0  0  0
 31 32  4  0  0  0  0
 32 33  4  0  0  0  0
 33 34  1  0  0  0  0
 34 35  2  0  0  0  0
 34 36  2  0  0  0  0
 35 36  1  0  0  0  0
 33 37  4  0  0  0  0
 30 38  4  0  0  0  0
 37 38  4  0  0  0  0
 29 39  4  0  0  0  0
 39 40  4  0  0  0  0
 40 41  2  0  0  0  0
  2 42  4  0  0  0  0
 41 42  4  0  0  0  0
  1 43  1  0  0  0  0
 39 43  4  0  0  0  0
 42 43  4  0  0  0  0
  2 44  1  0  0  0  0
  4 45  1  0  0  0  0
  5 46  1  0  0  0  0
 10 47  1  0  0  0  0
 11 48  1  0  0  0  0
 16 49  1  0  0  0  0
 17 50  1  0  0  0  0
 19 51  1  0  0  0  0
 20 52  1  0  0  0  0
 25 53  1  0  0  0  0
 26 54  1  0  0  0  0
 31 55  1  0  0  0  0
 32 56  1  0  0  0  0
 37 57  1  0  0  0  0
 38 58  1  0  0  0  0
 40 59  1  0  0  0  0
 41 60  1  0  0  0  0
 62 63  4  0  0  0  0
 63 64  4  0  0  0  0
 64 65  2  0  0  0  0
 65 66  4  0  0  0  0
 61 67  1  0  0  0  0
 63 67  4  0  0  0  0
 66 67  4  0  0  0  0
 66 68  4  0  0  0  0
 68 69  1  0  0  0  0
 69 70  4  0  0  0  0
 70 71  4  0  0  0  0
 71 72  4  0  0  0  0
 72 73  1  0  0  0  0
 73 74  2  0  0  0  0
 73 75  2  0  0  0  0
 74 75  1  0  0  0  0
 72 76  4  0  0  0  0
 69 77  4  0  0  0  0
 76 77  4  0  0  0  0
 68 78  4  0  0  0  0
 78 79  4  0  0  0  0
 79 80  2  0  0  0  0
 61 81  1  0  0  0  0
 78 81  4  0  0  0  0
 80 82  4  0  0  0  0
 81 82  4  0  0  0  0
 82 83  4  0  0  0  0
 83 84  4  0  0  0  0
 84 85  4  0  0  0  0
 85 86  2  0  0  0  0
 86 87  4  0  0  0  0
 61 88  1  0  0  0  0
 84 88  4  0  0  0  0
 87 88  4  0  0  0  0
 87 89  4  0  0  0  0
 89 90  1  0  0  0  0
 90 91  4  0  0  0  0
 91 92  4  0  0  0  0
 92 93  4  0  0  0  0
 93 94  1  0  0  0  0
 94 95  2  0  0  0  0
 94 96  2  0  0  0  0
 95 96  1  0  0  0  0
 93 97  4  0  0  0  0
 90 98  4  0  0  0  0
 97 98  4  0  0  0  0
 89 99  4  0  0  0  0
 99100  4  0  0  0  0
100101  2  0  0  0  0
 62102  4  0  0  0  0
101102  4  0  0  0  0
 61103  1  0  0  0  0
 99103  4  0  0  0  0
102103  4  0  0  0  0
 62104  1  0  0  0  0
 64105  1  0  0  0  0
 65106  1  0  0  0  0
 70107  1  0  0  0  0
 71108  1  0  0  0  0
 76109  1  0  0  0  0
 77110  1  0  0  0  0
 79111  1  0  0  0  0
 80112  1  0  0  0  0
 85113  1  0  0  0  0
 86114  1  0  0  0  0
 91115  1  0  0  0  0
 92116  1  0  0  0  0
 97117  1  0  0  0  0
 98118  1  0  0  0  0
100119  1  0  0  0  0
101120  1  0  0  0  0
 23122  4  0  0  0  0
121122  3  0  0  0  0
121123  4  0  0  0  0
 83124  4  0  0  0  0
123124  3  0  0  0  0
M  END
