 xtb: 6.5.1 (b24c23e)
          07292216443D

148167  0     0  0            999 V2000
   14.4638   -0.0011    0.0779 Fe  0  0  0  0  0  0  0  0  0  0  0  0
   11.0694    0.0940    0.0376 C   0  0  0  0  0  0  0  0  0  0  0  0
   11.7244    0.8993    0.9466 C   0  0  0  0  0  0  0  0  0  0  0  0
   11.0502    1.7513    1.8802 C   0  0  0  0  0  0  0  0  0  0  0  0
   12.0125    2.4167    2.5615 C   0  0  0  0  0  0  0  0  0  0  0  0
   13.2714    1.9675    2.0433 C   0  0  0  0  0  0  0  0  0  0  0  0
   13.0825    1.0345    1.0601 N   0  0  0  0  0  0  0  0  0  0  0  0
   14.4979    2.4467    2.4807 C   0  0  0  0  0  0  0  0  0  0  0  0
   15.7090    1.9882    1.9927 C   0  0  0  0  0  0  0  0  0  0  0  0
   16.9791    2.4708    2.4451 C   0  0  0  0  0  0  0  0  0  0  0  0
   17.9238    1.7670    1.7765 C   0  0  0  0  0  0  0  0  0  0  0  0
   15.8781    1.0097    1.0416 N   0  0  0  0  0  0  0  0  0  0  0  0
   17.2265    0.8615    0.9166 C   0  0  0  0  0  0  0  0  0  0  0  0
   17.8789   -0.0497    0.0775 C   0  0  0  0  0  0  0  0  0  0  0  0
   17.1972   -0.9305   -0.7706 C   0  0  0  0  0  0  0  0  0  0  0  0
   17.8662   -1.8794   -1.6050 C   0  0  0  0  0  0  0  0  0  0  0  0
   16.9030   -2.5317   -2.2983 C   0  0  0  0  0  0  0  0  0  0  0  0
   15.6489   -1.9732   -1.8899 C   0  0  0  0  0  0  0  0  0  0  0  0
   14.4249   -2.3737   -2.4027 C   0  0  0  0  0  0  0  0  0  0  0  0
   14.4066   -3.4215   -3.4598 C   0  0  0  0  0  0  0  0  0  0  0  0
   14.9153   -3.1500   -4.7373 C   0  0  0  0  0  0  0  0  0  0  0  0
   15.3967   -1.8943   -4.9300 O   0  0  0  0  0  0  0  0  0  0  0  0
   15.9683   -1.5270   -6.1692 C   0  0  0  0  0  0  0  0  0  0  0  0
   14.8978   -4.1328   -5.7266 C   0  0  0  0  0  0  0  0  0  0  0  0
   14.3781   -5.3844   -5.4330 C   0  0  0  0  0  0  0  0  0  0  0  0
   13.8728   -5.6773   -4.1754 C   0  0  0  0  0  0  0  0  0  0  0  0
   13.8845   -4.6933   -3.1873 C   0  0  0  0  0  0  0  0  0  0  0  0
   13.4212   -4.8865   -1.9247 O   0  0  0  0  0  0  0  0  0  0  0  0
   12.8768   -6.1334   -1.5429 C   0  0  0  0  0  0  0  0  0  0  0  0
   13.2137   -1.8468   -1.9703 C   0  0  0  0  0  0  0  0  0  0  0  0
   11.9408   -2.2318   -2.5069 C   0  0  0  0  0  0  0  0  0  0  0  0
   11.0010   -1.5415   -1.8197 C   0  0  0  0  0  0  0  0  0  0  0  0
   11.7016   -0.7299   -0.8702 C   0  0  0  0  0  0  0  0  0  0  0  0
   13.0554   -0.9084   -0.9866 N   0  0  0  0  0  0  0  0  0  0  0  0
   15.8467   -0.9980   -0.9410 N   0  0  0  0  0  0  0  0  0  0  0  0
   14.5113    3.5085    3.5282 C   0  0  0  0  0  0  0  0  0  0  0  0
   14.6428    3.1689    4.8794 C   0  0  0  0  0  0  0  0  0  0  0  0
   14.7512    1.8415    5.1476 O   0  0  0  0  0  0  0  0  0  0  0  0
   14.8890    1.3903    6.4799 C   0  0  0  0  0  0  0  0  0  0  0  0
   14.6543    4.1654    5.8554 C   0  0  0  0  0  0  0  0  0  0  0  0
   14.5367    5.4929    5.4719 C   0  0  0  0  0  0  0  0  0  0  0  0
   14.4078    5.8510    4.1383 C   0  0  0  0  0  0  0  0  0  0  0  0
   14.3946    4.8546    3.1624 C   0  0  0  0  0  0  0  0  0  0  0  0
   14.2763    5.0964    1.8309 O   0  0  0  0  0  0  0  0  0  0  0  0
   14.1793    6.4217    1.3500 C   0  0  0  0  0  0  0  0  0  0  0  0
    9.9851    0.1127    0.0340 H   0  0  0  0  0  0  0  0  0  0  0  0
    9.9785    1.8179    1.9834 H   0  0  0  0  0  0  0  0  0  0  0  0
   11.8984    3.1473    3.3464 H   0  0  0  0  0  0  0  0  0  0  0  0
   17.1146    3.2448    3.1833 H   0  0  0  0  0  0  0  0  0  0  0  0
   18.9971    1.8409    1.8480 H   0  0  0  0  0  0  0  0  0  0  0  0
   18.9349   -2.0179   -1.6415 H   0  0  0  0  0  0  0  0  0  0  0  0
   17.0192   -3.3217   -3.0222 H   0  0  0  0  0  0  0  0  0  0  0  0
   15.2343   -1.5805   -6.9824 H   0  0  0  0  0  0  0  0  0  0  0  0
   16.3022   -0.4941   -6.0548 H   0  0  0  0  0  0  0  0  0  0  0  0
   16.8301   -2.1588   -6.4166 H   0  0  0  0  0  0  0  0  0  0  0  0
   15.2831   -3.9313   -6.7171 H   0  0  0  0  0  0  0  0  0  0  0  0
   14.3667   -6.1491   -6.2019 H   0  0  0  0  0  0  0  0  0  0  0  0
   13.4758   -6.6631   -3.9735 H   0  0  0  0  0  0  0  0  0  0  0  0
   12.5807   -6.0278   -0.4976 H   0  0  0  0  0  0  0  0  0  0  0  0
   11.9945   -6.3873   -2.1430 H   0  0  0  0  0  0  0  0  0  0  0  0
   13.6169   -6.9382   -1.6281 H   0  0  0  0  0  0  0  0  0  0  0  0
   11.7996   -2.9421   -3.3052 H   0  0  0  0  0  0  0  0  0  0  0  0
    9.9282   -1.5652   -1.9301 H   0  0  0  0  0  0  0  0  0  0  0  0
   14.9611    0.3025    6.4262 H   0  0  0  0  0  0  0  0  0  0  0  0
   14.0186    1.6641    7.0886 H   0  0  0  0  0  0  0  0  0  0  0  0
   15.7977    1.7889    6.9472 H   0  0  0  0  0  0  0  0  0  0  0  0
   14.7535    3.9169    6.9036 H   0  0  0  0  0  0  0  0  0  0  0  0
   14.5460    6.2675    6.2310 H   0  0  0  0  0  0  0  0  0  0  0  0
   14.3186    6.8950    3.8693 H   0  0  0  0  0  0  0  0  0  0  0  0
   15.0642    7.0118    1.6178 H   0  0  0  0  0  0  0  0  0  0  0  0
   14.1142    6.3463    0.2631 H   0  0  0  0  0  0  0  0  0  0  0  0
   13.2809    6.9227    1.7308 H   0  0  0  0  0  0  0  0  0  0  0  0
   27.8892   -0.0745   -0.0116 Fe  0  0  0  0  0  0  0  0  0  0  0  0
   31.2834   -0.0135   -0.1055 C   0  0  0  0  0  0  0  0  0  0  0  0
   30.6287   -0.7978   -1.0327 C   0  0  0  0  0  0  0  0  0  0  0  0
   31.3031   -1.5970   -2.0116 C   0  0  0  0  0  0  0  0  0  0  0  0
   30.3410   -2.1797   -2.7650 C   0  0  0  0  0  0  0  0  0  0  0  0
   29.0818   -1.7360   -2.2427 C   0  0  0  0  0  0  0  0  0  0  0  0
   29.2705   -0.8955   -1.1793 N   0  0  0  0  0  0  0  0  0  0  0  0
   27.8552   -2.1073   -2.7745 C   0  0  0  0  0  0  0  0  0  0  0  0
   26.6439   -1.6943   -2.2477 C   0  0  0  0  0  0  0  0  0  0  0  0
   25.3737   -2.0786   -2.7861 C   0  0  0  0  0  0  0  0  0  0  0  0
   24.4291   -1.5164   -1.9948 C   0  0  0  0  0  0  0  0  0  0  0  0
   26.4748   -0.8894   -1.1459 N   0  0  0  0  0  0  0  0  0  0  0  0
   25.1265   -0.7888   -0.9799 C   0  0  0  0  0  0  0  0  0  0  0  0
   24.4739   -0.0842    0.0388 C   0  0  0  0  0  0  0  0  0  0  0  0
   25.1555    0.6331    1.0292 C   0  0  0  0  0  0  0  0  0  0  0  0
   24.4863    1.3260    2.0857 C   0  0  0  0  0  0  0  0  0  0  0  0
   25.4494    1.9194    2.8301 C   0  0  0  0  0  0  0  0  0  0  0  0
   26.7037    1.5929    2.2203 C   0  0  0  0  0  0  0  0  0  0  0  0
   27.9278    2.0422    2.6908 C   0  0  0  0  0  0  0  0  0  0  0  0
   27.9460    2.9387    3.8790 C   0  0  0  0  0  0  0  0  0  0  0  0
   27.4393    4.2426    3.7924 C   0  0  0  0  0  0  0  0  0  0  0  0
   26.9595    4.6135    2.5767 O   0  0  0  0  0  0  0  0  0  0  0  0
   26.3901    5.8933    2.3897 C   0  0  0  0  0  0  0  0  0  0  0  0
   27.4570    5.0812    4.9065 C   0  0  0  0  0  0  0  0  0  0  0  0
   27.9750    4.6111    6.1037 C   0  0  0  0  0  0  0  0  0  0  0  0
   28.4784    3.3237    6.2143 C   0  0  0  0  0  0  0  0  0  0  0  0
   28.4664    2.4865    5.0993 C   0  0  0  0  0  0  0  0  0  0  0  0
   28.9281    1.2086    5.1103 O   0  0  0  0  0  0  0  0  0  0  0  0
   29.4708    0.6518    6.2903 C   0  0  0  0  0  0  0  0  0  0  0  0
   29.1390    1.6891    2.1081 C   0  0  0  0  0  0  0  0  0  0  0  0
   30.4119    2.1648    2.5663 C   0  0  0  0  0  0  0  0  0  0  0  0
   31.3517    1.5858    1.7831 C   0  0  0  0  0  0  0  0  0  0  0  0
   30.6511    0.7635    0.8428 C   0  0  0  0  0  0  0  0  0  0  0  0
   29.2974    0.8512    1.0374 N   0  0  0  0  0  0  0  0  0  0  0  0
   26.5060    0.7916    1.1206 N   0  0  0  0  0  0  0  0  0  0  0  0
   27.8419   -2.9943   -3.9736 C   0  0  0  0  0  0  0  0  0  0  0  0
   27.7037   -4.3794   -3.8287 C   0  0  0  0  0  0  0  0  0  0  0  0
   27.5893   -4.8320   -2.5529 O   0  0  0  0  0  0  0  0  0  0  0  0
   27.4462   -6.2141   -2.2948 C   0  0  0  0  0  0  0  0  0  0  0  0
   27.6925   -5.2048   -4.9531 C   0  0  0  0  0  0  0  0  0  0  0  0
   27.8168   -4.6383   -6.2128 C   0  0  0  0  0  0  0  0  0  0  0  0
   27.9522   -3.2680   -6.3784 C   0  0  0  0  0  0  0  0  0  0  0  0
   27.9654   -2.4427   -5.2541 C   0  0  0  0  0  0  0  0  0  0  0  0
   28.0896   -1.0909   -5.3052 O   0  0  0  0  0  0  0  0  0  0  0  0
   28.1918   -0.4280   -6.5491 C   0  0  0  0  0  0  0  0  0  0  0  0
   32.3676   -0.0048   -0.1252 H   0  0  0  0  0  0  0  0  0  0  0  0
   32.3749   -1.6857   -2.0952 H   0  0  0  0  0  0  0  0  0  0  0  0
   30.4552   -2.8516   -3.6007 H   0  0  0  0  0  0  0  0  0  0  0  0
   25.2382   -2.7024   -3.6549 H   0  0  0  0  0  0  0  0  0  0  0  0
   23.3558   -1.5794   -2.0760 H   0  0  0  0  0  0  0  0  0  0  0  0
   23.4176    1.3433    2.2273 H   0  0  0  0  0  0  0  0  0  0  0  0
   25.3332    2.5246    3.7143 H   0  0  0  0  0  0  0  0  0  0  0  0
   27.1251    6.6893    2.5595 H   0  0  0  0  0  0  0  0  0  0  0  0
   26.0572    5.9282    1.3508 H   0  0  0  0  0  0  0  0  0  0  0  0
   25.5280    6.0492    3.0496 H   0  0  0  0  0  0  0  0  0  0  0  0
   27.0732    6.0909    4.8483 H   0  0  0  0  0  0  0  0  0  0  0  0
   27.9865    5.2628    6.9705 H   0  0  0  0  0  0  0  0  0  0  0  0
   28.8741    2.9826    7.1616 H   0  0  0  0  0  0  0  0  0  0  0  0
   29.7657   -0.3681    6.0366 H   0  0  0  0  0  0  0  0  0  0  0  0
   30.3535    1.2083    6.6281 H   0  0  0  0  0  0  0  0  0  0  0  0
   28.7299    0.6221    7.0984 H   0  0  0  0  0  0  0  0  0  0  0  0
   30.5530    2.8519    3.3848 H   0  0  0  0  0  0  0  0  0  0  0  0
   32.4244    1.6924    1.8218 H   0  0  0  0  0  0  0  0  0  0  0  0
   27.3708   -6.3144   -1.2105 H   0  0  0  0  0  0  0  0  0  0  0  0
   28.3157   -6.7809   -2.6494 H   0  0  0  0  0  0  0  0  0  0  0  0
   26.5375   -6.6175   -2.7579 H   0  0  0  0  0  0  0  0  0  0  0  0
   27.5884   -6.2772   -4.8554 H   0  0  0  0  0  0  0  0  0  0  0  0
   27.8076   -5.2803   -7.0868 H   0  0  0  0  0  0  0  0  0  0  0  0
   28.0465   -2.8547   -7.3737 H   0  0  0  0  0  0  0  0  0  0  0  0
   27.3078   -0.6069   -7.1733 H   0  0  0  0  0  0  0  0  0  0  0  0
   28.2598    0.6372   -6.3208 H   0  0  0  0  0  0  0  0  0  0  0  0
   29.0905   -0.7372   -7.0967 H   0  0  0  0  0  0  0  0  0  0  0  0
   20.5033   -0.0879    0.0830 C   0  0  0  0  0  0  0  0  0  0  0  0
   19.2796   -0.0766    0.0837 C   0  0  0  0  0  0  0  0  0  0  0  0
   21.8496   -0.0949    0.0759 C   0  0  0  0  0  0  0  0  0  0  0  0
   23.0732   -0.0942    0.0645 C   0  0  0  0  0  0  0  0  0  0  0  0
  2  3  4  0  0  0  0
  3  4  4  0  0  0  0
  4  5  2  0  0  0  0
  5  6  4  0  0  0  0
  1  7  1  0  0  0  0
  3  7  4  0  0  0  0
  6  7  4  0  0  0  0
  6  8  4  0  0  0  0
  8  9  4  0  0  0  0
  9 10  4  0  0  0  0
 10 11  2  0  0  0  0
  1 12  1  0  0  0  0
  9 12  4  0  0  0  0
 11 13  4  0  0  0  0
 12 13  4  0  0  0  0
 13 14  4  0  0  0  0
 14 15  4  0  0  0  0
 15 16  4  0  0  0  0
 16 17  2  0  0  0  0
 17 18  4  0  0  0  0
 18 19  4  0  0  0  0
 19 20  1  0  0  0  0
 20 21  4  0  0  0  0
 21 22  1  0  0  0  0
 22 23  1  0  0  0  0
 21 24  4  0  0  0  0
 24 25  4  0  0  0  0
 25 26  4  0  0  0  0
 20 27  4  0  0  0  0
 26 27  4  0  0  0  0
 27 28  1  0  0  0  0
 28 29  1  0  0  0  0
 19 30  4  0  0  0  0
 30 31  4  0  0  0  0
 31 32  2  0  0  0  0
  2 33  4  0  0  0  0
 32 33  4  0  0  0  0
  1 34  1  0  0  0  0
 30 34  4  0  0  0  0
 33 34  4  0  0  0  0
  1 35  1  0  0  0  0
 15 35  4  0  0  0  0
 18 35  4  0  0  0  0
  8 36  1  0  0  0  0
 36 37  4  0  0  0  0
 37 38  1  0  0  0  0
 38 39  1  0  0  0  0
 37 40  4  0  0  0  0
 40 41  4  0  0  0  0
 41 42  4  0  0  0  0
 36 43  4  0  0  0  0
 42 43  4  0  0  0  0
 43 44  1  0  0  0  0
 44 45  1  0  0  0  0
  2 46  1  0  0  0  0
  4 47  1  0  0  0  0
  5 48  1  0  0  0  0
 10 49  1  0  0  0  0
 11 50  1  0  0  0  0
 16 51  1  0  0  0  0
 17 52  1  0  0  0  0
 23 53  1  0  0  0  0
 23 54  1  0  0  0  0
 23 55  1  0  0  0  0
 24 56  1  0  0  0  0
 25 57  1  0  0  0  0
 26 58  1  0  0  0  0
 29 59  1  0  0  0  0
 29 60  1  0  0  0  0
 29 61  1  0  0  0  0
 31 62  1  0  0  0  0
 32 63  1  0  0  0  0
 39 64  1  0  0  0  0
 39 65  1  0  0  0  0
 39 66  1  0  0  0  0
 40 67  1  0  0  0  0
 41 68  1  0  0  0  0
 42 69  1  0  0  0  0
 45 70  1  0  0  0  0
 45 71  1  0  0  0  0
 45 72  1  0  0  0  0
 74 75  4  0  0  0  0
 75 76  4  0  0  0  0
 76 77  2  0  0  0  0
 77 78  4  0  0  0  0
 73 79  1  0  0  0  0
 75 79  4  0  0  0  0
 78 79  4  0  0  0  0
 78 80  4  0  0  0  0
 80 81  4  0  0  0  0
 81 82  4  0  0  0  0
 82 83  2  0  0  0  0
 73 84  1  0  0  0  0
 81 84  4  0  0  0  0
 83 85  4  0  0  0  0
 84 85  4  0  0  0  0
 85 86  4  0  0  0  0
 86 87  4  0  0  0  0
 87 88  4  0  0  0  0
 88 89  2  0  0  0  0
 89 90  4  0  0  0  0
 90 91  4  0  0  0  0
 91 92  1  0  0  0  0
 92 93  4  0  0  0  0
 93 94  1  0  0  0  0
 94 95  1  0  0  0  0
 93 96  4  0  0  0  0
 96 97  4  0  0  0  0
 97 98  4  0  0  0  0
 92 99  4  0  0  0  0
 98 99  4  0  0  0  0
 99100  1  0  0  0  0
100101  1  0  0  0  0
 91102  4  0  0  0  0
102103  4  0  0  0  0
103104  2  0  0  0  0
 74105  4  0  0  0  0
104105  4  0  0  0  0
 73106  1  0  0  0  0
102106  4  0  0  0  0
105106  4  0  0  0  0
 73107  1  0  0  0  0
 87107  4  0  0  0  0
 90107  4  0  0  0  0
 80108  1  0  0  0  0
108109  4  0  0  0  0
109110  1  0  0  0  0
110111  1  0  0  0  0
109112  4  0  0  0  0
112113  4  0  0  0  0
113114  4  0  0  0  0
108115  4  0  0  0  0
114115  4  0  0  0  0
115116  1  0  0  0  0
116117  1  0  0  0  0
 74118  1  0  0  0  0
 76119  1  0  0  0  0
 77120  1  0  0  0  0
 82121  1  0  0  0  0
 83122  1  0  0  0  0
 88123  1  0  0  0  0
 89124  1  0  0  0  0
 95125  1  0  0  0  0
 95126  1  0  0  0  0
 95127  1  0  0  0  0
 96128  1  0  0  0  0
 97129  1  0  0  0  0
 98130  1  0  0  0  0
101131  1  0  0  0  0
101132  1  0  0  0  0
101133  1  0  0  0  0
103134  1  0  0  0  0
104135  1  0  0  0  0
111136  1  0  0  0  0
111137  1  0  0  0  0
111138  1  0  0  0  0
112139  1  0  0  0  0
113140  1  0  0  0  0
114141  1  0  0  0  0
117142  1  0  0  0  0
117143  1  0  0  0  0
117144  1  0  0  0  0
 14146  4  0  0  0  0
145146  3  0  0  0  0
145147  4  0  0  0  0
 86148  4  0  0  0  0
147148  3  0  0  0  0
M  END
