 xtb: 6.5.1 (b24c23e)
          07302206433D

132151  0     0  0            999 V2000
   15.1680   -0.0794    0.0173 Ni  0  0  0  0  0  0  0  0  0  0  0  0
   11.7763   -0.1661    0.0468 C   0  0  0  0  0  0  0  0  0  0  0  0
   12.4380   -0.3290    1.2458 C   0  0  0  0  0  0  0  0  0  0  0  0
   11.7683   -0.5169    2.4966 C   0  0  0  0  0  0  0  0  0  0  0  0
   12.7258   -0.5185    3.4528 C   0  0  0  0  0  0  0  0  0  0  0  0
   13.9818   -0.3438    2.7834 C   0  0  0  0  0  0  0  0  0  0  0  0
   13.7959   -0.2455    1.4272 N   0  0  0  0  0  0  0  0  0  0  0  0
   15.1959   -0.1991    3.4416 C   0  0  0  0  0  0  0  0  0  0  0  0
   16.3998   -0.0266    2.7724 C   0  0  0  0  0  0  0  0  0  0  0  0
   17.6656    0.0792    3.4328 C   0  0  0  0  0  0  0  0  0  0  0  0
   18.6112    0.1081    2.4636 C   0  0  0  0  0  0  0  0  0  0  0  0
   16.5694   -0.0460    1.4062 N   0  0  0  0  0  0  0  0  0  0  0  0
   17.9223    0.0168    1.2159 C   0  0  0  0  0  0  0  0  0  0  0  0
   18.5811   -0.0659   -0.0142 C   0  0  0  0  0  0  0  0  0  0  0  0
   17.8994   -0.1345   -1.2322 C   0  0  0  0  0  0  0  0  0  0  0  0
   18.5630   -0.2346   -2.4929 C   0  0  0  0  0  0  0  0  0  0  0  0
   17.6002   -0.1788   -3.4442 C   0  0  0  0  0  0  0  0  0  0  0  0
   16.3507   -0.0375   -2.7599 C   0  0  0  0  0  0  0  0  0  0  0  0
   15.1304    0.1157   -3.4052 C   0  0  0  0  0  0  0  0  0  0  0  0
   15.1155    0.2056   -4.8838 C   0  0  0  0  0  0  0  0  0  0  0  0
   14.4341   -0.7491   -5.6436 C   0  0  0  0  0  0  0  0  0  0  0  0
   14.4197   -0.6622   -7.0234 C   0  0  0  0  0  0  0  0  0  0  0  0
   15.0835    0.3823   -7.6697 C   0  0  0  0  0  0  0  0  0  0  0  0
   15.0351    0.4351   -9.1506 C   0  0  0  0  0  0  0  0  0  0  0  0
   15.7126    1.4683   -9.6735 O   0  0  0  0  0  0  0  0  0  0  0  0
   14.4502   -0.3606   -9.8407 O   0  0  0  0  0  0  0  0  0  0  0  0
   15.7655    1.3378   -6.9157 C   0  0  0  0  0  0  0  0  0  0  0  0
   15.7817    1.2469   -5.5349 C   0  0  0  0  0  0  0  0  0  0  0  0
   13.9224    0.1774   -2.7218 C   0  0  0  0  0  0  0  0  0  0  0  0
   12.6508    0.3613   -3.3586 C   0  0  0  0  0  0  0  0  0  0  0  0
   11.7103    0.2670   -2.3900 C   0  0  0  0  0  0  0  0  0  0  0  0
   12.4083    0.0440   -1.1609 C   0  0  0  0  0  0  0  0  0  0  0  0
   13.7651    0.0235   -1.3672 N   0  0  0  0  0  0  0  0  0  0  0  0
   16.5442   -0.0479   -1.3972 N   0  0  0  0  0  0  0  0  0  0  0  0
   15.2090   -0.2353    4.9242 C   0  0  0  0  0  0  0  0  0  0  0  0
   14.8766   -1.4081    5.6062 C   0  0  0  0  0  0  0  0  0  0  0  0
   14.8915   -1.4379    6.9887 C   0  0  0  0  0  0  0  0  0  0  0  0
   15.2350   -0.2952    7.7134 C   0  0  0  0  0  0  0  0  0  0  0  0
   15.2347   -0.3762    9.1940 C   0  0  0  0  0  0  0  0  0  0  0  0
   15.5856    0.7711    9.7943 O   0  0  0  0  0  0  0  0  0  0  0  0
   14.9484   -1.3643    9.8211 O   0  0  0  0  0  0  0  0  0  0  0  0
   15.5662    0.8786    7.0360 C   0  0  0  0  0  0  0  0  0  0  0  0
   15.5548    0.9052    5.6523 C   0  0  0  0  0  0  0  0  0  0  0  0
   10.6929   -0.1913    0.0564 H   0  0  0  0  0  0  0  0  0  0  0  0
   10.7006   -0.6172    2.6090 H   0  0  0  0  0  0  0  0  0  0  0  0
   12.6046   -0.6152    4.5194 H   0  0  0  0  0  0  0  0  0  0  0  0
   17.8040    0.1084    4.5011 H   0  0  0  0  0  0  0  0  0  0  0  0
   19.6820    0.1742    2.5688 H   0  0  0  0  0  0  0  0  0  0  0  0
   19.6292   -0.3336   -2.6173 H   0  0  0  0  0  0  0  0  0  0  0  0
   17.7151   -0.2356   -4.5142 H   0  0  0  0  0  0  0  0  0  0  0  0
   13.9292   -1.5683   -5.1445 H   0  0  0  0  0  0  0  0  0  0  0  0
   13.8960   -1.4017   -7.6192 H   0  0  0  0  0  0  0  0  0  0  0  0
   15.6317    1.4312  -10.6404 H   0  0  0  0  0  0  0  0  0  0  0  0
   16.2800    2.1514   -7.4131 H   0  0  0  0  0  0  0  0  0  0  0  0
   16.3010    1.9966   -4.9486 H   0  0  0  0  0  0  0  0  0  0  0  0
   12.5090    0.5419   -4.4117 H   0  0  0  0  0  0  0  0  0  0  0  0
   10.6383    0.3427   -2.4790 H   0  0  0  0  0  0  0  0  0  0  0  0
   14.6208   -2.2992    5.0445 H   0  0  0  0  0  0  0  0  0  0  0  0
   14.6396   -2.3459    7.5256 H   0  0  0  0  0  0  0  0  0  0  0  0
   15.5596    0.6359   10.7554 H   0  0  0  0  0  0  0  0  0  0  0  0
   15.8305    1.7686    7.5948 H   0  0  0  0  0  0  0  0  0  0  0  0
   15.8024    1.8196    5.1251 H   0  0  0  0  0  0  0  0  0  0  0  0
   33.7365   -0.0750   -0.0285 Ni  0  0  0  0  0  0  0  0  0  0  0  0
   37.1278   -0.1622   -0.0665 C   0  0  0  0  0  0  0  0  0  0  0  0
   36.4662   -0.1898   -1.2763 C   0  0  0  0  0  0  0  0  0  0  0  0
   37.1357   -0.2385   -2.5403 C   0  0  0  0  0  0  0  0  0  0  0  0
   36.1787   -0.1287   -3.4907 C   0  0  0  0  0  0  0  0  0  0  0  0
   34.9231   -0.0254   -2.8060 C   0  0  0  0  0  0  0  0  0  0  0  0
   35.1086   -0.0820   -1.4473 N   0  0  0  0  0  0  0  0  0  0  0  0
   33.7102    0.2006   -3.4433 C   0  0  0  0  0  0  0  0  0  0  0  0
   32.5066    0.3001   -2.7588 C   0  0  0  0  0  0  0  0  0  0  0  0
   31.2415    0.4871   -3.4024 C   0  0  0  0  0  0  0  0  0  0  0  0
   30.2953    0.4028   -2.4369 C   0  0  0  0  0  0  0  0  0  0  0  0
   32.3360    0.1201   -1.4045 N   0  0  0  0  0  0  0  0  0  0  0  0
   30.9833    0.1624   -1.2086 C   0  0  0  0  0  0  0  0  0  0  0  0
   30.3238   -0.0663    0.0025 C   0  0  0  0  0  0  0  0  0  0  0  0
   31.0050   -0.2785    1.2042 C   0  0  0  0  0  0  0  0  0  0  0  0
   30.3414   -0.5274    2.4440 C   0  0  0  0  0  0  0  0  0  0  0  0
   31.3036   -0.5807    3.3959 C   0  0  0  0  0  0  0  0  0  0  0  0
   32.5530   -0.3570    2.7337 C   0  0  0  0  0  0  0  0  0  0  0  0
   33.7726   -0.2754    3.3934 C   0  0  0  0  0  0  0  0  0  0  0  0
   33.7870   -0.3570    4.8724 C   0  0  0  0  0  0  0  0  0  0  0  0
   34.4734   -1.3899    5.5167 C   0  0  0  0  0  0  0  0  0  0  0  0
   34.4883   -1.4632    6.8973 C   0  0  0  0  0  0  0  0  0  0  0  0
   33.8200   -0.5036    7.6600 C   0  0  0  0  0  0  0  0  0  0  0  0
   33.8703   -0.6216    9.1371 C   0  0  0  0  0  0  0  0  0  0  0  0
   33.1887    0.3410    9.7763 O   0  0  0  0  0  0  0  0  0  0  0  0
   34.4600   -1.4887    9.7303 O   0  0  0  0  0  0  0  0  0  0  0  0
   33.1324    0.5291    7.0217 C   0  0  0  0  0  0  0  0  0  0  0  0
   33.1158    0.5985    5.6396 C   0  0  0  0  0  0  0  0  0  0  0  0
   34.9806   -0.1322    2.7223 C   0  0  0  0  0  0  0  0  0  0  0  0
   36.2518   -0.0188    3.3763 C   0  0  0  0  0  0  0  0  0  0  0  0
   37.1927   -0.0023    2.4037 C   0  0  0  0  0  0  0  0  0  0  0  0
   36.4955   -0.0870    1.1569 C   0  0  0  0  0  0  0  0  0  0  0  0
   35.1386   -0.1317    1.3591 N   0  0  0  0  0  0  0  0  0  0  0  0
   32.3600   -0.2090    1.3790 N   0  0  0  0  0  0  0  0  0  0  0  0
   33.6978    0.3359   -4.9202 C   0  0  0  0  0  0  0  0  0  0  0  0
   34.0232   -0.7525   -5.7329 C   0  0  0  0  0  0  0  0  0  0  0  0
   34.0078   -0.6231   -7.1097 C   0  0  0  0  0  0  0  0  0  0  0  0
   33.6712    0.5976   -7.6978 C   0  0  0  0  0  0  0  0  0  0  0  0
   33.6715    0.6876   -9.1777 C   0  0  0  0  0  0  0  0  0  0  0  0
   33.3249    1.8976   -9.6420 O   0  0  0  0  0  0  0  0  0  0  0  0
   33.9505   -0.2238   -9.9145 O   0  0  0  0  0  0  0  0  0  0  0  0
   33.3475    1.6877   -6.8895 C   0  0  0  0  0  0  0  0  0  0  0  0
   33.3591    1.5547   -5.5119 C   0  0  0  0  0  0  0  0  0  0  0  0
   38.2111   -0.1873   -0.0786 H   0  0  0  0  0  0  0  0  0  0  0  0
   38.2031   -0.3297   -2.6632 H   0  0  0  0  0  0  0  0  0  0  0  0
   36.3002   -0.1053   -4.5614 H   0  0  0  0  0  0  0  0  0  0  0  0
   31.1039    0.6435   -4.4597 H   0  0  0  0  0  0  0  0  0  0  0  0
   29.2247    0.4834   -2.5338 H   0  0  0  0  0  0  0  0  0  0  0  0
   29.2754   -0.6430    2.5554 H   0  0  0  0  0  0  0  0  0  0  0  0
   31.1884   -0.7624    4.4519 H   0  0  0  0  0  0  0  0  0  0  0  0
   34.9820   -2.1433    4.9261 H   0  0  0  0  0  0  0  0  0  0  0  0
   35.0161   -2.2640    7.4034 H   0  0  0  0  0  0  0  0  0  0  0  0
   33.2716    0.1932   10.7324 H   0  0  0  0  0  0  0  0  0  0  0  0
   32.6141    1.2771    7.6099 H   0  0  0  0  0  0  0  0  0  0  0  0
   32.5923    1.4084    5.1441 H   0  0  0  0  0  0  0  0  0  0  0  0
   36.3930    0.0425    4.4430 H   0  0  0  0  0  0  0  0  0  0  0  0
   38.2645    0.0644    2.5011 H   0  0  0  0  0  0  0  0  0  0  0  0
   34.2738   -1.7038   -5.2776 H   0  0  0  0  0  0  0  0  0  0  0  0
   34.2545   -1.4646   -7.7477 H   0  0  0  0  0  0  0  0  0  0  0  0
   33.3486    1.8731  -10.6124 H   0  0  0  0  0  0  0  0  0  0  0  0
   33.0885    2.6376   -7.3420 H   0  0  0  0  0  0  0  0  0  0  0  0
   33.1171    2.4039   -4.8829 H   0  0  0  0  0  0  0  0  0  0  0  0
   19.9858   -0.0741   -0.0242 C   0  0  0  0  0  0  0  0  0  0  0  0
   21.2099   -0.0803   -0.0210 C   0  0  0  0  0  0  0  0  0  0  0  0
   22.5531   -0.0836   -0.0151 C   0  0  0  0  0  0  0  0  0  0  0  0
   23.7833   -0.0863   -0.0050 C   0  0  0  0  0  0  0  0  0  0  0  0
   25.1216   -0.0869    0.0032 C   0  0  0  0  0  0  0  0  0  0  0  0
   26.3519   -0.0855    0.0116 C   0  0  0  0  0  0  0  0  0  0  0  0
   27.6950   -0.0810    0.0164 C   0  0  0  0  0  0  0  0  0  0  0  0
   28.9191   -0.0766    0.0110 C   0  0  0  0  0  0  0  0  0  0  0  0
  2  3  4  0  0  0  0
  3  4  4  0  0  0  0
  4  5  2  0  0  0  0
  5  6  4  0  0  0  0
  1  7  1  0  0  0  0
  3  7  4  0  0  0  0
  6  7  4  0  0  0  0
  6  8  4  0  0  0  0
  8  9  4  0  0  0  0
  9 10  4  0  0  0  0
 10 11  2  0  0  0  0
  1 12  1  0  0  0  0
  9 12  4  0  0  0  0
 11 13  4  0  0  0  0
 12 13  4  0  0  0  0
 13 14  4  0  0  0  0
 14 15  4  0  0  0  0
 15 16  4  0  0  0  0
 16 17  2  0  0  0  0
 17 18  4  0  0  0  0
 18 19  4  0  0  0  0
 19 20  1  0  0  0  0
 20 21  4  0  0  0  0
 21 22  4  0  0  0  0
 22 23  4  0  0  0  0
 23 24  1  0  0  0  0
 24 25  4  0  0  0  0
 24 26  2  0  0  0  0
 23 27  4  0  0  0  0
 20 28  4  0  0  0  0
 27 28  4  0  0  0  0
 19 29  4  0  0  0  0
 29 30  4  0  0  0  0
 30 31  2  0  0  0  0
  2 32  4  0  0  0  0
 31 32  4  0  0  0  0
  1 33  1  0  0  0  0
 29 33  4  0  0  0  0
 32 33  4  0  0  0  0
  1 34  1  0  0  0  0
 15 34  4  0  0  0  0
 18 34  4  0  0  0  0
  8 35  1  0  0  0  0
 35 36  4  0  0  0  0
 36 37  4  0  0  0  0
 37 38  4  0  0  0  0
 38 39  1  0  0  0  0
 39 40  4  0  0  0  0
 39 41  2  0  0  0  0
 38 42  4  0  0  0  0
 35 43  4  0  0  0  0
 42 43  4  0  0  0  0
  2 44  1  0  0  0  0
  4 45  1  0  0  0  0
  5 46  1  0  0  0  0
 10 47  1  0  0  0  0
 11 48  1  0  0  0  0
 16 49  1  0  0  0  0
 17 50  1  0  0  0  0
 21 51  1  0  0  0  0
 22 52  1  0  0  0  0
 25 53  1  0  0  0  0
 27 54  1  0  0  0  0
 28 55  1  0  0  0  0
 30 56  1  0  0  0  0
 31 57  1  0  0  0  0
 36 58  1  0  0  0  0
 37 59  1  0  0  0  0
 40 60  1  0  0  0  0
 42 61  1  0  0  0  0
 43 62  1  0  0  0  0
 64 65  4  0  0  0  0
 65 66  4  0  0  0  0
 66 67  2  0  0  0  0
 67 68  4  0  0  0  0
 63 69  1  0  0  0  0
 65 69  4  0  0  0  0
 68 69  4  0  0  0  0
 68 70  4  0  0  0  0
 70 71  4  0  0  0  0
 71 72  4  0  0  0  0
 72 73  2  0  0  0  0
 63 74  1  0  0  0  0
 71 74  4  0  0  0  0
 73 75  4  0  0  0  0
 74 75  4  0  0  0  0
 75 76  4  0  0  0  0
 76 77  4  0  0  0  0
 77 78  4  0  0  0  0
 78 79  2  0  0  0  0
 79 80  4  0  0  0  0
 80 81  4  0  0  0  0
 81 82  1  0  0  0  0
 82 83  4  0  0  0  0
 83 84  4  0  0  0  0
 84 85  4  0  0  0  0
 85 86  1  0  0  0  0
 86 87  4  0  0  0  0
 86 88  2  0  0  0  0
 85 89  4  0  0  0  0
 82 90  4  0  0  0  0
 89 90  4  0  0  0  0
 81 91  4  0  0  0  0
 91 92  4  0  0  0  0
 92 93  2  0  0  0  0
 64 94  4  0  0  0  0
 93 94  4  0  0  0  0
 63 95  1  0  0  0  0
 91 95  4  0  0  0  0
 94 95  4  0  0  0  0
 63 96  1  0  0  0  0
 77 96  4  0  0  0  0
 80 96  4  0  0  0  0
 70 97  1  0  0  0  0
 97 98  4  0  0  0  0
 98 99  4  0  0  0  0
 99100  4  0  0  0  0
100101  1  0  0  0  0
101102  4  0  0  0  0
101103  2  0  0  0  0
100104  4  0  0  0  0
 97105  4  0  0  0  0
104105  4  0  0  0  0
 64106  1  0  0  0  0
 66107  1  0  0  0  0
 67108  1  0  0  0  0
 72109  1  0  0  0  0
 73110  1  0  0  0  0
 78111  1  0  0  0  0
 79112  1  0  0  0  0
 83113  1  0  0  0  0
 84114  1  0  0  0  0
 87115  1  0  0  0  0
 89116  1  0  0  0  0
 90117  1  0  0  0  0
 92118  1  0  0  0  0
 93119  1  0  0  0  0
 98120  1  0  0  0  0
 99121  1  0  0  0  0
102122  1  0  0  0  0
104123  1  0  0  0  0
105124  1  0  0  0  0
 14125  4  0  0  0  0
125126  3  0  0  0  0
126127  4  0  0  0  0
127128  3  0  0  0  0
128129  4  0  0  0  0
129130  3  0  0  0  0
130131  4  0  0  0  0
 76132  4  0  0  0  0
131132  3  0  0  0  0
M  END
