 xtb: 6.5.1 (b24c23e)
          07302208413D

134153  0     0  0            999 V2000
   18.8601    0.0482   -0.0128 Zn  0  0  0  0  0  0  0  0  0  0  0  0
   15.4464    0.0699   -0.0201 C   0  0  0  0  0  0  0  0  0  0  0  0
   16.0708    1.0223    0.7766 C   0  0  0  0  0  0  0  0  0  0  0  0
   15.3926    1.9659    1.6195 C   0  0  0  0  0  0  0  0  0  0  0  0
   16.3478    2.7201    2.2198 C   0  0  0  0  0  0  0  0  0  0  0  0
   17.6217    2.2565    1.7378 C   0  0  0  0  0  0  0  0  0  0  0  0
   17.4186    1.2173    0.8771 N   0  0  0  0  0  0  0  0  0  0  0  0
   18.8694    2.7844    2.0936 C   0  0  0  0  0  0  0  0  0  0  0  0
   18.8774    3.9441    3.0172 C   0  0  0  0  0  0  0  0  0  0  0  0
   18.2313    5.1370    2.6813 C   0  0  0  0  0  0  0  0  0  0  0  0
   18.2286    6.2100    3.5528 C   0  0  0  0  0  0  0  0  0  0  0  0
   18.8635    6.1176    4.7972 C   0  0  0  0  0  0  0  0  0  0  0  0
   18.8687    7.2353    5.6215 N   0  0  0  0  0  0  0  0  0  0  0  0
   19.0484    7.0650    7.0574 C   0  0  0  0  0  0  0  0  0  0  0  0
   19.5219    4.9317    5.1336 C   0  0  0  0  0  0  0  0  0  0  0  0
   19.5261    3.8648    4.2509 C   0  0  0  0  0  0  0  0  0  0  0  0
   20.1097    2.3057    1.6535 C   0  0  0  0  0  0  0  0  0  0  0  0
   21.3773    2.9160    1.9395 C   0  0  0  0  0  0  0  0  0  0  0  0
   22.3304    2.1561    1.3416 C   0  0  0  0  0  0  0  0  0  0  0  0
   20.3168    1.1991    0.8732 N   0  0  0  0  0  0  0  0  0  0  0  0
   21.6596    1.0745    0.6849 C   0  0  0  0  0  0  0  0  0  0  0  0
   22.3033    0.0337   -0.0167 C   0  0  0  0  0  0  0  0  0  0  0  0
   21.6488   -1.0051   -0.7115 C   0  0  0  0  0  0  0  0  0  0  0  0
   22.3097   -2.1005   -1.3549 C   0  0  0  0  0  0  0  0  0  0  0  0
   21.3493   -2.8616   -1.9394 C   0  0  0  0  0  0  0  0  0  0  0  0
   20.0873   -2.2359   -1.6616 C   0  0  0  0  0  0  0  0  0  0  0  0
   20.3049   -1.1203   -0.8970 N   0  0  0  0  0  0  0  0  0  0  0  0
   18.8422   -2.7074   -2.0961 C   0  0  0  0  0  0  0  0  0  0  0  0
   18.8377   -3.8899   -2.9897 C   0  0  0  0  0  0  0  0  0  0  0  0
   19.5054   -3.8618   -4.2156 C   0  0  0  0  0  0  0  0  0  0  0  0
   19.4978   -4.9577   -5.0619 C   0  0  0  0  0  0  0  0  0  0  0  0
   18.8156   -6.1214   -4.6965 C   0  0  0  0  0  0  0  0  0  0  0  0
   18.8188   -7.2675   -5.4807 N   0  0  0  0  0  0  0  0  0  0  0  0
   19.0275   -7.1521   -6.9180 C   0  0  0  0  0  0  0  0  0  0  0  0
   18.1575   -6.1610   -3.4615 C   0  0  0  0  0  0  0  0  0  0  0  0
   18.1650   -5.0599   -2.6261 C   0  0  0  0  0  0  0  0  0  0  0  0
   17.6004   -2.1570   -1.7533 C   0  0  0  0  0  0  0  0  0  0  0  0
   16.3229   -2.6059   -2.2395 C   0  0  0  0  0  0  0  0  0  0  0  0
   15.3752   -1.8323   -1.6520 C   0  0  0  0  0  0  0  0  0  0  0  0
   16.0620   -0.8928   -0.8114 C   0  0  0  0  0  0  0  0  0  0  0  0
   17.4074   -1.1072   -0.9033 N   0  0  0  0  0  0  0  0  0  0  0  0
   14.3607    0.0773   -0.0230 H   0  0  0  0  0  0  0  0  0  0  0  0
   14.3220    2.0281    1.7381 H   0  0  0  0  0  0  0  0  0  0  0  0
   16.2055    3.5136    2.9360 H   0  0  0  0  0  0  0  0  0  0  0  0
   17.7422    5.2268    1.7174 H   0  0  0  0  0  0  0  0  0  0  0  0
   17.7309    7.1333    3.2752 H   0  0  0  0  0  0  0  0  0  0  0  0
   18.1173    7.8795    5.4046 H   0  0  0  0  0  0  0  0  0  0  0  0
   20.0673    6.7397    7.2708 H   0  0  0  0  0  0  0  0  0  0  0  0
   18.3428    6.3336    7.4684 H   0  0  0  0  0  0  0  0  0  0  0  0
   18.8841    8.0313    7.5343 H   0  0  0  0  0  0  0  0  0  0  0  0
   20.0322    4.8338    6.0839 H   0  0  0  0  0  0  0  0  0  0  0  0
   20.0244    2.9431    4.5318 H   0  0  0  0  0  0  0  0  0  0  0  0
   21.5182    3.8216    2.5074 H   0  0  0  0  0  0  0  0  0  0  0  0
   23.3951    2.3206    1.3310 H   0  0  0  0  0  0  0  0  0  0  0  0
   23.3729   -2.2739   -1.3433 H   0  0  0  0  0  0  0  0  0  0  0  0
   21.4828   -3.7773   -2.4926 H   0  0  0  0  0  0  0  0  0  0  0  0
   20.0227   -2.9580   -4.5195 H   0  0  0  0  0  0  0  0  0  0  0  0
   20.0251   -4.9002   -6.0063 H   0  0  0  0  0  0  0  0  0  0  0  0
   18.0553   -7.8938   -5.2542 H   0  0  0  0  0  0  0  0  0  0  0  0
   18.3421   -6.4247   -7.3681 H   0  0  0  0  0  0  0  0  0  0  0  0
   18.8555   -8.1323   -7.3629 H   0  0  0  0  0  0  0  0  0  0  0  0
   20.0556   -6.8515   -7.1237 H   0  0  0  0  0  0  0  0  0  0  0  0
   17.6394   -7.0661   -3.1619 H   0  0  0  0  0  0  0  0  0  0  0  0
   17.6597   -5.1097   -1.6676 H   0  0  0  0  0  0  0  0  0  0  0  0
   16.1735   -3.4024   -2.9508 H   0  0  0  0  0  0  0  0  0  0  0  0
   14.3046   -1.8796   -1.7769 H   0  0  0  0  0  0  0  0  0  0  0  0
   29.7852    0.0019   -0.0498 Zn  0  0  0  0  0  0  0  0  0  0  0  0
   33.1990    0.0042   -0.0722 C   0  0  0  0  0  0  0  0  0  0  0  0
   32.5746   -0.9811   -0.8279 C   0  0  0  0  0  0  0  0  0  0  0  0
   33.2528   -2.0096   -1.5649 C   0  0  0  0  0  0  0  0  0  0  0  0
   32.2977   -2.7598   -2.1702 C   0  0  0  0  0  0  0  0  0  0  0  0
   31.0238   -2.1882   -1.8231 C   0  0  0  0  0  0  0  0  0  0  0  0
   31.2269   -1.1216   -0.9965 N   0  0  0  0  0  0  0  0  0  0  0  0
   29.7762   -2.6505   -2.2607 C   0  0  0  0  0  0  0  0  0  0  0  0
   29.7680   -3.8049   -3.1911 C   0  0  0  0  0  0  0  0  0  0  0  0
   30.4140   -3.7374   -4.4285 C   0  0  0  0  0  0  0  0  0  0  0  0
   30.4164   -4.8222   -5.2855 C   0  0  0  0  0  0  0  0  0  0  0  0
   29.7814   -6.0162   -4.9236 C   0  0  0  0  0  0  0  0  0  0  0  0
   29.7760   -7.0648   -5.8345 N   0  0  0  0  0  0  0  0  0  0  0  0
   29.5972   -8.4288   -5.3542 C   0  0  0  0  0  0  0  0  0  0  0  0
   29.1230   -6.0856   -3.6929 C   0  0  0  0  0  0  0  0  0  0  0  0
   29.1191   -4.9914   -2.8443 C   0  0  0  0  0  0  0  0  0  0  0  0
   28.5358   -2.1166   -1.8896 C   0  0  0  0  0  0  0  0  0  0  0  0
   27.2683   -2.5290   -2.4228 C   0  0  0  0  0  0  0  0  0  0  0  0
   26.3151   -1.7799   -1.8115 C   0  0  0  0  0  0  0  0  0  0  0  0
   28.3287   -1.1139   -0.9797 N   0  0  0  0  0  0  0  0  0  0  0  0
   26.9858   -0.9031   -0.8992 C   0  0  0  0  0  0  0  0  0  0  0  0
   26.3421    0.0088   -0.0367 C   0  0  0  0  0  0  0  0  0  0  0  0
   26.9965    0.9134    0.8257 C   0  0  0  0  0  0  0  0  0  0  0  0
   26.3355    1.7802    1.7544 C   0  0  0  0  0  0  0  0  0  0  0  0
   27.2958    2.5168    2.3696 C   0  0  0  0  0  0  0  0  0  0  0  0
   28.5578    2.1094    1.8193 C   0  0  0  0  0  0  0  0  0  0  0  0
   28.3403    1.1197    0.8976 N   0  0  0  0  0  0  0  0  0  0  0  0
   29.8029    2.6365    2.1845 C   0  0  0  0  0  0  0  0  0  0  0  0
   29.8074    3.7666    3.1435 C   0  0  0  0  0  0  0  0  0  0  0  0
   29.1399    4.9569    2.8487 C   0  0  0  0  0  0  0  0  0  0  0  0
   29.1477    6.0219    3.7337 C   0  0  0  0  0  0  0  0  0  0  0  0
   29.8298    5.9190    4.9490 C   0  0  0  0  0  0  0  0  0  0  0  0
   29.8269    6.9342    5.8965 N   0  0  0  0  0  0  0  0  0  0  0  0
   29.6183    8.3119    5.4705 C   0  0  0  0  0  0  0  0  0  0  0  0
   30.4878    4.7223    5.2571 C   0  0  0  0  0  0  0  0  0  0  0  0
   30.4802    3.6668    4.3647 C   0  0  0  0  0  0  0  0  0  0  0  0
   31.0448    2.1819    1.7222 C   0  0  0  0  0  0  0  0  0  0  0  0
   32.3222    2.7543    2.0542 C   0  0  0  0  0  0  0  0  0  0  0  0
   33.2700    2.0120    1.4278 C   0  0  0  0  0  0  0  0  0  0  0  0
   32.5833    0.9866    0.6944 C   0  0  0  0  0  0  0  0  0  0  0  0
   31.2379    1.1232    0.8834 N   0  0  0  0  0  0  0  0  0  0  0  0
   34.2847    0.0053   -0.0797 H   0  0  0  0  0  0  0  0  0  0  0  0
   34.3235   -2.1389   -1.5995 H   0  0  0  0  0  0  0  0  0  0  0  0
   32.4400   -3.6318   -2.7884 H   0  0  0  0  0  0  0  0  0  0  0  0
   30.9033   -2.8165   -4.7266 H   0  0  0  0  0  0  0  0  0  0  0  0
   30.9141   -4.7529   -6.2472 H   0  0  0  0  0  0  0  0  0  0  0  0
   30.5276   -6.9937   -6.5103 H   0  0  0  0  0  0  0  0  0  0  0  0
   28.5786   -8.5663   -4.9895 H   0  0  0  0  0  0  0  0  0  0  0  0
   30.3034   -8.6696   -4.5512 H   0  0  0  0  0  0  0  0  0  0  0  0
   29.7611   -9.1054   -6.1930 H   0  0  0  0  0  0  0  0  0  0  0  0
   28.6125   -6.9916   -3.3899 H   0  0  0  0  0  0  0  0  0  0  0  0
   28.6209   -5.0642   -1.8836 H   0  0  0  0  0  0  0  0  0  0  0  0
   27.1274   -3.2807   -3.1828 H   0  0  0  0  0  0  0  0  0  0  0  0
   25.2504   -1.8056   -1.9743 H   0  0  0  0  0  0  0  0  0  0  0  0
   25.2723    1.8063    1.9264 H   0  0  0  0  0  0  0  0  0  0  0  0
   27.1624    3.2566    3.1424 H   0  0  0  0  0  0  0  0  0  0  0  0
   28.6227    5.0564    1.9004 H   0  0  0  0  0  0  0  0  0  0  0  0
   28.6206    6.9311    3.4715 H   0  0  0  0  0  0  0  0  0  0  0  0
   30.5904    6.8497    6.5571 H   0  0  0  0  0  0  0  0  0  0  0  0
   30.3036    8.5924    4.6622 H   0  0  0  0  0  0  0  0  0  0  0  0
   29.7907    8.9598    6.3300 H   0  0  0  0  0  0  0  0  0  0  0  0
   28.5902    8.4472    5.1325 H   0  0  0  0  0  0  0  0  0  0  0  0
   31.0058    4.6272    6.2057 H   0  0  0  0  0  0  0  0  0  0  0  0
   30.9852    2.7422    4.6223 H   0  0  0  0  0  0  0  0  0  0  0  0
   32.4715    3.6224    2.6763 H   0  0  0  0  0  0  0  0  0  0  0  0
   34.3407    2.1442    1.4468 H   0  0  0  0  0  0  0  0  0  0  0  0
   23.7135    0.0265   -0.0212 C   0  0  0  0  0  0  0  0  0  0  0  0
   24.9318    0.0157   -0.0321 C   0  0  0  0  0  0  0  0  0  0  0  0
  2  3  4  0  0  0  0
  3  4  4  0  0  0  0
  4  5  2  0  0  0  0
  5  6  4  0  0  0  0
  1  7  1  0  0  0  0
  3  7  4  0  0  0  0
  6  7  4  0  0  0  0
  6  8  4  0  0  0  0
  8  9  1  0  0  0  0
  9 10  4  0  0  0  0
 10 11  4  0  0  0  0
 11 12  4  0  0  0  0
 12 13  1  0  0  0  0
 13 14  1  0  0  0  0
 12 15  4  0  0  0  0
  9 16  4  0  0  0  0
 15 16  4  0  0  0  0
  8 17  4  0  0  0  0
 17 18  4  0  0  0  0
 18 19  2  0  0  0  0
  1 20  1  0  0  0  0
 17 20  4  0  0  0  0
 19 21  4  0  0  0  0
 20 21  4  0  0  0  0
 21 22  4  0  0  0  0
 22 23  4  0  0  0  0
 23 24  4  0  0  0  0
 24 25  2  0  0  0  0
 25 26  4  0  0  0  0
  1 27  1  0  0  0  0
 23 27  4  0  0  0  0
 26 27  4  0  0  0  0
 26 28  4  0  0  0  0
 28 29  1  0  0  0  0
 29 30  4  0  0  0  0
 30 31  4  0  0  0  0
 31 32  4  0  0  0  0
 32 33  1  0  0  0  0
 33 34  1  0  0  0  0
 32 35  4  0  0  0  0
 29 36  4  0  0  0  0
 35 36  4  0  0  0  0
 28 37  4  0  0  0  0
 37 38  4  0  0  0  0
 38 39  2  0  0  0  0
  2 40  4  0  0  0  0
 39 40  4  0  0  0  0
  1 41  1  0  0  0  0
 37 41  4  0  0  0  0
 40 41  4  0  0  0  0
  2 42  1  0  0  0  0
  4 43  1  0  0  0  0
  5 44  1  0  0  0  0
 10 45  1  0  0  0  0
 11 46  1  0  0  0  0
 13 47  1  0  0  0  0
 14 48  1  0  0  0  0
 14 49  1  0  0  0  0
 14 50  1  0  0  0  0
 15 51  1  0  0  0  0
 16 52  1  0  0  0  0
 18 53  1  0  0  0  0
 19 54  1  0  0  0  0
 24 55  1  0  0  0  0
 25 56  1  0  0  0  0
 30 57  1  0  0  0  0
 31 58  1  0  0  0  0
 33 59  1  0  0  0  0
 34 60  1  0  0  0  0
 34 61  1  0  0  0  0
 34 62  1  0  0  0  0
 35 63  1  0  0  0  0
 36 64  1  0  0  0  0
 38 65  1  0  0  0  0
 39 66  1  0  0  0  0
 68 69  4  0  0  0  0
 69 70  4  0  0  0  0
 70 71  2  0  0  0  0
 71 72  4  0  0  0  0
 67 73  1  0  0  0  0
 69 73  4  0  0  0  0
 72 73  4  0  0  0  0
 72 74  4  0  0  0  0
 74 75  1  0  0  0  0
 75 76  4  0  0  0  0
 76 77  4  0  0  0  0
 77 78  4  0  0  0  0
 78 79  1  0  0  0  0
 79 80  1  0  0  0  0
 78 81  4  0  0  0  0
 75 82  4  0  0  0  0
 81 82  4  0  0  0  0
 74 83  4  0  0  0  0
 83 84  4  0  0  0  0
 84 85  2  0  0  0  0
 67 86  1  0  0  0  0
 83 86  4  0  0  0  0
 85 87  4  0  0  0  0
 86 87  4  0  0  0  0
 87 88  4  0  0  0  0
 88 89  4  0  0  0  0
 89 90  4  0  0  0  0
 90 91  2  0  0  0  0
 91 92  4  0  0  0  0
 67 93  1  0  0  0  0
 89 93  4  0  0  0  0
 92 93  4  0  0  0  0
 92 94  4  0  0  0  0
 94 95  1  0  0  0  0
 95 96  4  0  0  0  0
 96 97  4  0  0  0  0
 97 98  4  0  0  0  0
 98 99  1  0  0  0  0
 99100  1  0  0  0  0
 98101  4  0  0  0  0
 95102  4  0  0  0  0
101102  4  0  0  0  0
 94103  4  0  0  0  0
103104  4  0  0  0  0
104105  2  0  0  0  0
 68106  4  0  0  0  0
105106  4  0  0  0  0
 67107  1  0  0  0  0
103107  4  0  0  0  0
106107  4  0  0  0  0
 68108  1  0  0  0  0
 70109  1  0  0  0  0
 71110  1  0  0  0  0
 76111  1  0  0  0  0
 77112  1  0  0  0  0
 79113  1  0  0  0  0
 80114  1  0  0  0  0
 80115  1  0  0  0  0
 80116  1  0  0  0  0
 81117  1  0  0  0  0
 82118  1  0  0  0  0
 84119  1  0  0  0  0
 85120  1  0  0  0  0
 90121  1  0  0  0  0
 91122  1  0  0  0  0
 96123  1  0  0  0  0
 97124  1  0  0  0  0
 99125  1  0  0  0  0
100126  1  0  0  0  0
100127  1  0  0  0  0
100128  1  0  0  0  0
101129  1  0  0  0  0
102130  1  0  0  0  0
104131  1  0  0  0  0
105132  1  0  0  0  0
 22133  4  0  0  0  0
 88134  4  0  0  0  0
133134  3  0  0  0  0
M  END
