306

C 46.681086 -0.007710 -0.056924
C 47.409579 -1.265888 0.507680
C 46.800970 -2.430407 0.917394
C 47.822758 -3.281669 1.412241
C 49.020827 -2.604275 1.294389
N 48.762220 -1.397145 0.694701
C 50.443316 -3.106388 1.783921
C 51.573148 -2.431161 1.439078
C 52.877786 -2.827401 1.928269
C 53.780152 -1.977142 1.452967
N 51.769424 -1.324898 0.654611
C 53.100977 -1.000107 0.624620
C 53.768621 0.002399 -0.006475
C 52.990971 1.035274 -0.927169
C 53.531362 1.770660 -1.964135
C 52.506570 2.604294 -2.476985
C 51.366325 2.346938 -1.746309
C 49.957025 3.052654 -1.929722
C 49.929780 4.390970 -2.562599
C 49.557103 4.536148 -3.904898
C 49.546159 5.798159 -4.501835
C 49.910917 6.922599 -3.760302
C 50.286301 6.785914 -2.423103
C 50.296582 5.523482 -1.826629
C 48.831398 2.431361 -1.490502
C 47.509518 3.020115 -1.613582
C 46.623702 2.167997 -1.106158
C 47.345326 1.013226 -0.630154
N 48.666418 1.221040 -0.876205
N 51.656989 1.352970 -0.841677
C 50.480782 -4.298220 2.664770
C 50.228425 -4.169751 4.035707
C 50.252990 -5.292665 4.864944
C 50.529046 -6.550653 4.327281
C 50.780808 -6.686970 2.961374
C 50.755824 -5.563914 2.132420
H 45.603252 0.040658 0.041202
H 45.742606 -2.637156 0.880325
H 47.695571 -4.268445 1.831393
H 49.463434 -0.707754 0.434922
H 53.088862 -3.658860 2.576872
H 54.833686 -2.027450 1.658328
H 54.553277 1.724730 -2.308365
H 52.591082 3.316002 -3.284382
H 49.272870 3.652301 -4.472081
H 49.251874 5.896272 -5.541731
H 49.902125 7.904162 -4.223259
H 50.571333 7.655522 -1.839669
H 50.587608 5.406179 -0.784987
H 47.281670 3.980695 -2.039308
H 45.560199 2.312321 -1.048362
H 50.973692 0.891570 -0.246731
H 50.016105 -3.183968 4.443916
H 50.057743 -5.178375 5.926348
H 50.549705 -7.423220 4.972357
H 50.998609 -7.661490 2.536416
H 50.953771 -5.656784 1.066746
C 121.572178 -0.038907 -0.037153
C 120.843686 1.008776 -0.933897
C 121.452295 1.876409 -1.812067
C 120.430506 2.687301 -2.370616
C 119.232438 2.291550 -1.808358
N 119.491044 1.233932 -0.972754
C 117.809949 2.948584 -2.053440
C 116.680117 2.348491 -1.590044
C 115.375479 2.960020 -1.739530
C 114.473113 2.167231 -1.173545
N 116.483840 1.166837 -0.924535
C 115.152288 1.001064 -0.643629
C 114.484643 0.002399 -0.006475
C 115.262294 -1.271116 0.534514
C 114.721903 -2.522778 0.756848
C 115.746695 -3.342424 1.291770
C 116.886940 -2.571809 1.370965
C 118.296240 -3.038937 1.930846
C 118.323485 -4.182570 2.870913
C 118.696161 -5.458388 2.429176
C 118.707106 -6.536946 3.315583
C 118.342348 -6.346396 4.648972
C 117.966964 -5.078816 5.096213
C 117.956683 -4.000497 4.209227
C 119.421867 -2.376523 1.556512
C 120.743747 -2.739160 2.036380
C 121.629562 -1.916531 1.482427
C 120.907939 -0.993113 0.641371
N 119.586847 -1.304331 0.724258
N 116.596276 -1.329429 0.858303
C 117.772483 4.253925 -2.755183
C 118.024840 5.438821 -2.053761
C 118.000275 6.668068 -2.715215
C 117.724219 6.718890 -4.082341
C 117.472457 5.541892 -4.788713
C 117.497440 4.312840 -4.127009
H 122.650013 0.029181 0.048476
H 122.510659 1.931148 -2.014854
H 120.557694 3.487591 -3.084023
H 118.789831 0.704716 -0.460236
H 115.164403 3.901499 -2.214533
H 113.419578 2.374416 -1.131370
H 113.699988 -2.814459 0.568362
H 115.662182 -4.376379 1.590693
H 118.980395 -5.593981 1.387784
H 119.001391 -7.519208 2.960379
H 118.351140 -7.184074 5.338966
H 117.681932 -4.922448 6.131666
H 117.665657 -3.008463 4.547823
H 120.971594 -3.534213 2.723292
H 122.693066 -1.925877 1.637612
H 117.279572 -0.594449 0.695038
H 118.237160 5.387138 -0.988054
H 118.195522 7.579107 -2.158753
H 117.703560 7.674728 -4.596023
H 117.254656 5.573621 -5.851384
H 117.299494 3.388797 -4.665923
C 60.286066 0.003269 0.002079
C 59.077127 -0.010186 -0.006368
C 57.655598 -0.001366 -0.018351
C 56.443928 0.006072 -0.007488
C 61.702670 -0.003406 0.002613
C 62.923366 0.006072 -0.007488
C 76.582283 0.003269 0.002079
C 75.373344 -0.010186 -0.006368
C 73.951815 -0.001366 -0.018351
C 72.740145 0.006072 -0.007488
C 77.998887 -0.003406 0.002613
C 79.219583 0.006072 -0.007488
C 92.878500 0.003269 0.002079
C 91.669561 -0.010186 -0.006368
C 90.248032 -0.001366 -0.018351
C 89.036362 0.006072 -0.007488
C 94.295104 -0.003406 0.002613
C 95.515800 0.006072 -0.007488
C 109.174717 0.003269 0.002079
C 107.965778 -0.010186 -0.006368
C 106.544249 -0.001366 -0.018351
C 105.332579 0.006072 -0.007488
C 110.591321 -0.003406 0.002613
C 111.812017 0.006072 -0.007488
C 64.253454 -0.002495 0.005463
C 65.047106 1.107328 0.811423
C 64.540380 1.932070 1.795316
C 65.577279 2.820769 2.178556
C 66.686721 2.505967 1.422312
N 66.375769 1.415192 0.649512
C 68.076346 3.266079 1.430956
C 69.211155 2.612238 1.067303
C 70.498086 3.273553 1.001365
C 71.406047 2.385267 0.611686
N 69.419186 1.313583 0.692375
C 70.743694 1.112331 0.409198
C 71.407492 -0.002495 0.005463
C 70.613856 -1.358418 -0.201416
C 71.120622 -2.636629 -0.081455
C 70.083721 -3.538127 -0.433534
C 68.974238 -2.782650 -0.750021
C 67.584586 -3.329372 -1.278094
C 67.593712 -4.607592 -2.027922
C 68.071774 -4.647846 -3.342807
C 68.096779 -5.852837 -4.047827
C 67.645990 -7.025759 -3.440800
C 67.171048 -6.995256 -2.129116
C 67.146991 -5.790207 -1.424521
C 66.449788 -2.608673 -1.077181
C 65.162850 -3.032708 -1.588919
C 64.254892 -2.126975 -1.241717
C 64.917253 -1.079231 -0.490999
N 66.241764 -1.421412 -0.431055
N 69.285173 -1.463601 -0.532904
C 68.067100 4.702348 1.795959
C 67.588837 5.655064 0.888939
C 67.563518 7.007733 1.234377
C 68.014195 7.415507 2.490582
C 68.489367 6.471985 3.402167
C 68.513744 5.119570 3.056385
H 63.531949 1.913877 2.179698
H 65.516674 3.614409 2.908026
H 67.036873 0.892582 0.082179
H 70.692723 4.308632 1.218474
H 72.450489 2.596059 0.471973
H 72.129083 -2.893875 0.204637
H 70.144352 -4.615373 -0.472620
H 68.422088 -3.728621 -3.807322
H 68.468521 -5.868450 -5.067352
H 67.664772 -7.961933 -3.989548
H 66.818066 -7.902952 -1.650423
H 66.777489 -5.754193 -0.401862
H 64.968207 -3.921544 -2.162064
H 63.210450 -2.178700 -1.489257
H 68.624048 -0.693110 -0.569001
H 67.238570 5.327604 -0.087563
H 67.191589 7.735335 0.520146
H 67.995131 8.467117 2.758259
H 68.842246 6.781286 4.380671
H 68.883379 4.375249 3.758534
C 80.549671 -0.002495 0.005463
C 81.343323 1.107328 0.811423
C 80.836597 1.932070 1.795316
C 81.873496 2.820769 2.178556
C 82.982938 2.505967 1.422312
N 82.671986 1.415192 0.649512
C 84.372563 3.266079 1.430956
C 85.507372 2.612238 1.067303
C 86.794303 3.273553 1.001365
C 87.702264 2.385267 0.611686
N 85.715403 1.313583 0.692375
C 87.039911 1.112331 0.409198
C 87.703709 -0.002495 0.005463
C 86.910073 -1.358418 -0.201416
C 87.416839 -2.636629 -0.081455
C 86.379938 -3.538127 -0.433534
C 85.270455 -2.782650 -0.750021
C 83.880803 -3.329372 -1.278094
C 83.889929 -4.607592 -2.027922
C 84.367991 -4.647846 -3.342807
C 84.392996 -5.852837 -4.047827
C 83.942207 -7.025759 -3.440800
C 83.467265 -6.995256 -2.129116
C 83.443208 -5.790207 -1.424521
C 82.746005 -2.608673 -1.077181
C 81.459068 -3.032708 -1.588919
C 80.551109 -2.126975 -1.241717
C 81.213470 -1.079231 -0.490999
N 82.537982 -1.421412 -0.431055
N 85.581390 -1.463601 -0.532904
C 84.363317 4.702348 1.795959
C 83.885054 5.655064 0.888939
C 83.859735 7.007733 1.234377
C 84.310412 7.415507 2.490582
C 84.785584 6.471985 3.402167
C 84.809961 5.119570 3.056385
H 79.828166 1.913877 2.179698
H 81.812891 3.614409 2.908026
H 83.333090 0.892582 0.082179
H 86.988940 4.308632 1.218474
H 88.746706 2.596059 0.471973
H 88.425300 -2.893875 0.204637
H 86.440569 -4.615373 -0.472620
H 84.718305 -3.728621 -3.807322
H 84.764738 -5.868450 -5.067352
H 83.960989 -7.961933 -3.989548
H 83.114283 -7.902952 -1.650423
H 83.073706 -5.754193 -0.401862
H 81.264424 -3.921544 -2.162064
H 79.506667 -2.178700 -1.489257
H 84.920265 -0.693110 -0.569001
H 83.534787 5.327604 -0.087563
H 83.487806 7.735335 0.520146
H 84.291348 8.467117 2.758259
H 85.138463 6.781286 4.380671
H 85.179596 4.375249 3.758534
C 96.845888 -0.002495 0.005463
C 97.639540 1.107328 0.811423
C 97.132814 1.932070 1.795316
C 98.169713 2.820769 2.178556
C 99.279155 2.505967 1.422312
N 98.968203 1.415192 0.649512
C 100.668780 3.266079 1.430956
C 101.803589 2.612238 1.067303
C 103.090520 3.273553 1.001365
C 103.998482 2.385267 0.611686
N 102.011620 1.313583 0.692375
C 103.336128 1.112331 0.409198
C 103.999926 -0.002495 0.005463
C 103.206290 -1.358418 -0.201416
C 103.713056 -2.636629 -0.081455
C 102.676155 -3.538127 -0.433534
C 101.566672 -2.782650 -0.750021
C 100.177020 -3.329372 -1.278094
C 100.186146 -4.607592 -2.027922
C 100.664208 -4.647846 -3.342807
C 100.689213 -5.852837 -4.047827
C 100.238424 -7.025759 -3.440800
C 99.763482 -6.995256 -2.129116
C 99.739425 -5.790207 -1.424521
C 99.042222 -2.608673 -1.077181
C 97.755285 -3.032708 -1.588919
C 96.847326 -2.126975 -1.241717
C 97.509687 -1.079231 -0.490999
N 98.834199 -1.421412 -0.431055
N 101.877608 -1.463601 -0.532904
C 100.659534 4.702348 1.795959
C 100.181271 5.655064 0.888939
C 100.155952 7.007733 1.234377
C 100.606629 7.415507 2.490582
C 101.081801 6.471985 3.402167
C 101.106178 5.119570 3.056385
H 96.124383 1.913877 2.179698
H 98.109108 3.614409 2.908026
H 99.629307 0.892582 0.082179
H 103.285157 4.308632 1.218474
H 105.042923 2.596059 0.471973
H 104.721517 -2.893875 0.204637
H 102.736786 -4.615373 -0.472620
H 101.014523 -3.728621 -3.807322
H 101.060955 -5.868450 -5.067352
H 100.257206 -7.961933 -3.989548
H 99.410500 -7.902952 -1.650423
H 99.369923 -5.754193 -0.401862
H 97.560641 -3.921544 -2.162064
H 95.802884 -2.178700 -1.489257
H 101.216482 -0.693110 -0.569001
H 99.831004 5.327604 -0.087563
H 99.784024 7.735335 0.520146
H 100.587565 8.467117 2.758259
H 101.434680 6.781286 4.380671
H 101.475813 4.375249 3.758534
