 xtb: 6.5.1 (b24c23e)
          07302202323D

226265  0     0  0            999 V2000
   37.1236   -0.0183   -0.0208 Ni  0  0  0  0  0  0  0  0  0  0  0  0
   33.7308   -0.0505   -0.0356 C   0  0  0  0  0  0  0  0  0  0  0  0
   34.3890   -1.2623   -0.0153 C   0  0  0  0  0  0  0  0  0  0  0  0
   33.7160   -2.5252    0.0069 C   0  0  0  0  0  0  0  0  0  0  0  0
   34.6742   -3.4734    0.1247 C   0  0  0  0  0  0  0  0  0  0  0  0
   35.9333   -2.7887    0.1675 C   0  0  0  0  0  0  0  0  0  0  0  0
   35.7486   -1.4326    0.0628 N   0  0  0  0  0  0  0  0  0  0  0  0
   37.1495   -3.4211    0.3882 C   0  0  0  0  0  0  0  0  0  0  0  0
   37.1623   -4.8928    0.5678 C   0  0  0  0  0  0  0  0  0  0  0  0
   37.5205   -5.4695    1.7852 C   0  0  0  0  0  0  0  0  0  0  0  0
   37.5171   -6.8504    1.9045 C   0  0  0  0  0  0  0  0  0  0  0  0
   37.1903   -7.6629    0.9048 N   0  0  0  0  0  0  0  0  0  0  0  0
   36.8496   -7.1205   -0.2597 C   0  0  0  0  0  0  0  0  0  0  0  0
   36.8181   -5.7515   -0.4749 C   0  0  0  0  0  0  0  0  0  0  0  0
   38.3549   -2.7355    0.4482 C   0  0  0  0  0  0  0  0  0  0  0  0
   39.6210   -3.3729    0.6498 C   0  0  0  0  0  0  0  0  0  0  0  0
   40.5665   -2.4103    0.5339 C   0  0  0  0  0  0  0  0  0  0  0  0
   38.5243   -1.3879    0.2235 N   0  0  0  0  0  0  0  0  0  0  0  0
   39.8774   -1.1902    0.2559 C   0  0  0  0  0  0  0  0  0  0  0  0
   40.5353    0.0096   -0.0241 C   0  0  0  0  0  0  0  0  0  0  0  0
   39.8560    1.1998   -0.2936 C   0  0  0  0  0  0  0  0  0  0  0  0
   40.5215    2.4268   -0.5969 C   0  0  0  0  0  0  0  0  0  0  0  0
   39.5603    3.3758   -0.6961 C   0  0  0  0  0  0  0  0  0  0  0  0
   38.3098    2.7252   -0.4463 C   0  0  0  0  0  0  0  0  0  0  0  0
   38.5011    1.3787   -0.2342 N   0  0  0  0  0  0  0  0  0  0  0  0
   37.0911    3.3887   -0.4005 C   0  0  0  0  0  0  0  0  0  0  0  0
   37.0790    4.8613   -0.5616 C   0  0  0  0  0  0  0  0  0  0  0  0
   36.4211    5.4671   -1.6313 C   0  0  0  0  0  0  0  0  0  0  0  0
   36.4398    6.8487   -1.7406 C   0  0  0  0  0  0  0  0  0  0  0  0
   37.0555    7.6363   -0.8648 N   0  0  0  0  0  0  0  0  0  0  0  0
   37.6832    7.0667    0.1590 C   0  0  0  0  0  0  0  0  0  0  0  0
   37.7253    5.6947    0.3505 C   0  0  0  0  0  0  0  0  0  0  0  0
   35.8832    2.7287   -0.2154 C   0  0  0  0  0  0  0  0  0  0  0  0
   34.6147    3.3918   -0.1318 C   0  0  0  0  0  0  0  0  0  0  0  0
   33.6728    2.4247   -0.0364 C   0  0  0  0  0  0  0  0  0  0  0  0
   34.3668    1.1732   -0.0488 C   0  0  0  0  0  0  0  0  0  0  0  0
   35.7231    1.3685   -0.1277 N   0  0  0  0  0  0  0  0  0  0  0  0
   32.6471   -0.0603   -0.0349 H   0  0  0  0  0  0  0  0  0  0  0  0
   32.6462   -2.6483   -0.0489 H   0  0  0  0  0  0  0  0  0  0  0  0
   34.5525   -4.5422    0.1922 H   0  0  0  0  0  0  0  0  0  0  0  0
   37.7849   -4.8452    2.6303 H   0  0  0  0  0  0  0  0  0  0  0  0
   37.7887   -7.3237    2.8435 H   0  0  0  0  0  0  0  0  0  0  0  0
   36.5903   -7.8104   -1.0574 H   0  0  0  0  0  0  0  0  0  0  0  0
   36.5441   -5.3536   -1.4447 H   0  0  0  0  0  0  0  0  0  0  0  0
   39.7593   -4.4247    0.8389 H   0  0  0  0  0  0  0  0  0  0  0  0
   41.6374   -2.5042    0.6139 H   0  0  0  0  0  0  0  0  0  0  0  0
   41.5880    2.5321   -0.7136 H   0  0  0  0  0  0  0  0  0  0  0  0
   39.6766    4.4230   -0.9225 H   0  0  0  0  0  0  0  0  0  0  0  0
   35.9154    4.8638   -2.3757 H   0  0  0  0  0  0  0  0  0  0  0  0
   35.9385    7.3434   -2.5674 H   0  0  0  0  0  0  0  0  0  0  0  0
   38.1749    7.7367    0.8582 H   0  0  0  0  0  0  0  0  0  0  0  0
   38.2408    5.2749    1.2060 H   0  0  0  0  0  0  0  0  0  0  0  0
   34.4768    4.4607   -0.1426 H   0  0  0  0  0  0  0  0  0  0  0  0
   32.6020    2.5286    0.0380 H   0  0  0  0  0  0  0  0  0  0  0  0
   77.4199    0.0417   -0.0223 Ni  0  0  0  0  0  0  0  0  0  0  0  0
   80.8169    0.0588   -0.0438 C   0  0  0  0  0  0  0  0  0  0  0  0
   80.1634    1.2344   -0.3472 C   0  0  0  0  0  0  0  0  0  0  0  0
   80.8438    2.4555   -0.6539 C   0  0  0  0  0  0  0  0  0  0  0  0
   79.8886    3.3961   -0.8371 C   0  0  0  0  0  0  0  0  0  0  0  0
   78.6246    2.7455   -0.6506 C   0  0  0  0  0  0  0  0  0  0  0  0
   78.8032    1.4172   -0.3551 N   0  0  0  0  0  0  0  0  0  0  0  0
   77.4041    3.4044   -0.7042 C   0  0  0  0  0  0  0  0  0  0  0  0
   77.3964    4.8609   -0.9834 C   0  0  0  0  0  0  0  0  0  0  0  0
   76.9836    5.7768   -0.0171 C   0  0  0  0  0  0  0  0  0  0  0  0
   76.9994    7.1294   -0.3194 C   0  0  0  0  0  0  0  0  0  0  0  0
   77.3867    7.6031   -1.4992 N   0  0  0  0  0  0  0  0  0  0  0  0
   77.7777    6.7356   -2.4269 C   0  0  0  0  0  0  0  0  0  0  0  0
   77.8030    5.3655   -2.2172 C   0  0  0  0  0  0  0  0  0  0  0  0
   76.1907    2.7622   -0.5031 C   0  0  0  0  0  0  0  0  0  0  0  0
   74.9235    3.4223   -0.5924 C   0  0  0  0  0  0  0  0  0  0  0  0
   73.9751    2.4748   -0.4019 C   0  0  0  0  0  0  0  0  0  0  0  0
   76.0191    1.4179   -0.2600 N   0  0  0  0  0  0  0  0  0  0  0  0
   74.6643    1.2396   -0.2022 C   0  0  0  0  0  0  0  0  0  0  0  0
   74.0034    0.0248   -0.0061 C   0  0  0  0  0  0  0  0  0  0  0  0
   74.6785   -1.1826    0.1878 C   0  0  0  0  0  0  0  0  0  0  0  0
   74.0044   -2.4300    0.3605 C   0  0  0  0  0  0  0  0  0  0  0  0
   74.9638   -3.3672    0.5478 C   0  0  0  0  0  0  0  0  0  0  0  0
   76.2219   -2.6859    0.4988 C   0  0  0  0  0  0  0  0  0  0  0  0
   76.0351   -1.3439    0.2546 N   0  0  0  0  0  0  0  0  0  0  0  0
   77.4445   -3.3178    0.6784 C   0  0  0  0  0  0  0  0  0  0  0  0
   77.4561   -4.7698    0.9752 C   0  0  0  0  0  0  0  0  0  0  0  0
   78.0377   -5.6820    0.0958 C   0  0  0  0  0  0  0  0  0  0  0  0
   78.0235   -7.0307    0.4149 C   0  0  0  0  0  0  0  0  0  0  0  0
   77.4819   -7.5048    1.5322 N   0  0  0  0  0  0  0  0  0  0  0  0
   76.9273   -6.6414    2.3768 C   0  0  0  0  0  0  0  0  0  0  0  0
   76.8875   -5.2757    2.1433 C   0  0  0  0  0  0  0  0  0  0  0  0
   78.6582   -2.6494    0.5891 C   0  0  0  0  0  0  0  0  0  0  0  0
   79.9292   -3.2748    0.8108 C   0  0  0  0  0  0  0  0  0  0  0  0
   80.8731   -2.3273    0.6051 C   0  0  0  0  0  0  0  0  0  0  0  0
   80.1780   -1.1227    0.2680 C   0  0  0  0  0  0  0  0  0  0  0  0
   78.8201   -1.3223    0.2789 N   0  0  0  0  0  0  0  0  0  0  0  0
   81.9007    0.0651   -0.0449 H   0  0  0  0  0  0  0  0  0  0  0  0
   81.9157    2.5605   -0.7076 H   0  0  0  0  0  0  0  0  0  0  0  0
   80.0144    4.4414   -1.0676 H   0  0  0  0  0  0  0  0  0  0  0  0
   76.6679    5.4354    0.9614 H   0  0  0  0  0  0  0  0  0  0  0  0
   76.6878    7.8633    0.4182 H   0  0  0  0  0  0  0  0  0  0  0  0
   78.0852    7.1534   -3.3810 H   0  0  0  0  0  0  0  0  0  0  0  0
   78.1214    4.6944   -3.0059 H   0  0  0  0  0  0  0  0  0  0  0  0
   74.7883    4.4733   -0.7887 H   0  0  0  0  0  0  0  0  0  0  0  0
   72.9027    2.5847   -0.4009 H   0  0  0  0  0  0  0  0  0  0  0  0
   72.9341   -2.5564    0.3345 H   0  0  0  0  0  0  0  0  0  0  0  0
   74.8413   -4.4272    0.6985 H   0  0  0  0  0  0  0  0  0  0  0  0
   78.4818   -5.3413   -0.8319 H   0  0  0  0  0  0  0  0  0  0  0  0
   78.4665   -7.7610   -0.2559 H   0  0  0  0  0  0  0  0  0  0  0  0
   76.4952   -7.0592    3.2814 H   0  0  0  0  0  0  0  0  0  0  0  0
   76.4336   -4.6077    2.8655 H   0  0  0  0  0  0  0  0  0  0  0  0
   80.0670   -4.3055    1.0943 H   0  0  0  0  0  0  0  0  0  0  0  0
   81.9457   -2.4147    0.6738 H   0  0  0  0  0  0  0  0  0  0  0  0
   43.1630    0.0260   -0.0318 C   0  0  0  0  0  0  0  0  0  0  0  0
   41.9421    0.0194   -0.0325 C   0  0  0  0  0  0  0  0  0  0  0  0
   44.5141    0.0279   -0.0339 C   0  0  0  0  0  0  0  0  0  0  0  0
   45.7352    0.0319   -0.0341 C   0  0  0  0  0  0  0  0  0  0  0  0
   56.6021    0.0214   -0.0221 C   0  0  0  0  0  0  0  0  0  0  0  0
   55.3806    0.0219   -0.0263 C   0  0  0  0  0  0  0  0  0  0  0  0
   57.9521    0.0194   -0.0200 C   0  0  0  0  0  0  0  0  0  0  0  0
   59.1737    0.0153   -0.0182 C   0  0  0  0  0  0  0  0  0  0  0  0
   70.0255    0.0073   -0.0013 C   0  0  0  0  0  0  0  0  0  0  0  0
   68.8041    0.0049   -0.0025 C   0  0  0  0  0  0  0  0  0  0  0  0
   71.3760    0.0125   -0.0022 C   0  0  0  0  0  0  0  0  0  0  0  0
   72.5972    0.0171   -0.0049 C   0  0  0  0  0  0  0  0  0  0  0  0
   50.5585    0.0183   -0.0393 Ni  0  0  0  0  0  0  0  0  0  0  0  0
   47.1414    0.0289   -0.0351 C   0  0  0  0  0  0  0  0  0  0  0  0
   47.8106   -0.7593    0.9042 C   0  0  0  0  0  0  0  0  0  0  0  0
   47.1355   -1.5357    1.8945 C   0  0  0  0  0  0  0  0  0  0  0  0
   48.0887   -2.2359    2.5553 C   0  0  0  0  0  0  0  0  0  0  0  0
   49.3427   -1.8899    1.9588 C   0  0  0  0  0  0  0  0  0  0  0  0
   49.1633   -0.9524    0.9674 N   0  0  0  0  0  0  0  0  0  0  0  0
   50.5535   -2.4670    2.3176 C   0  0  0  0  0  0  0  0  0  0  0  0
   50.5487   -3.5475    3.3310 C   0  0  0  0  0  0  0  0  0  0  0  0
   49.8713   -4.7453    3.1058 C   0  0  0  0  0  0  0  0  0  0  0  0
   49.8967   -5.7293    4.0815 C   0  0  0  0  0  0  0  0  0  0  0  0
   50.5368   -5.5864    5.2374 N   0  0  0  0  0  0  0  0  0  0  0  0
   51.1825   -4.4464    5.4612 C   0  0  0  0  0  0  0  0  0  0  0  0
   51.2196   -3.4070    4.5451 C   0  0  0  0  0  0  0  0  0  0  0  0
   51.7668   -2.0763    1.7681 C   0  0  0  0  0  0  0  0  0  0  0  0
   53.0205   -2.6859    2.0914 C   0  0  0  0  0  0  0  0  0  0  0  0
   53.9765   -1.9837    1.4370 C   0  0  0  0  0  0  0  0  0  0  0  0
   51.9499   -1.0344    0.8869 N   0  0  0  0  0  0  0  0  0  0  0  0
   53.3034   -0.9567    0.7079 C   0  0  0  0  0  0  0  0  0  0  0  0
   53.9756    0.0211   -0.0304 C   0  0  0  0  0  0  0  0  0  0  0  0
   53.3062    0.9945   -0.7769 C   0  0  0  0  0  0  0  0  0  0  0  0
   53.9816    2.0156   -1.5122 C   0  0  0  0  0  0  0  0  0  0  0  0
   53.0283    2.7065   -2.1827 C   0  0  0  0  0  0  0  0  0  0  0  0
   51.7741    2.0981   -1.8594 C   0  0  0  0  0  0  0  0  0  0  0  0
   51.9538    1.0666   -0.9658 N   0  0  0  0  0  0  0  0  0  0  0  0
   50.5629    2.4841   -2.4165 C   0  0  0  0  0  0  0  0  0  0  0  0
   50.5636    3.5504   -3.4453 C   0  0  0  0  0  0  0  0  0  0  0  0
   51.2186    3.3804   -4.6641 C   0  0  0  0  0  0  0  0  0  0  0  0
   51.1860    4.4057   -5.5964 C   0  0  0  0  0  0  0  0  0  0  0  0
   50.5608    5.5589   -5.3830 N   0  0  0  0  0  0  0  0  0  0  0  0
   49.9373    5.7302   -4.2218 C   0  0  0  0  0  0  0  0  0  0  0  0
   49.9078    4.7618   -3.2307 C   0  0  0  0  0  0  0  0  0  0  0  0
   49.3496    1.9179   -2.0500 C   0  0  0  0  0  0  0  0  0  0  0  0
   48.0959    2.2702   -2.6435 C   0  0  0  0  0  0  0  0  0  0  0  0
   47.1397    1.5852   -1.9715 C   0  0  0  0  0  0  0  0  0  0  0  0
   47.8128    0.8100   -0.9787 C   0  0  0  0  0  0  0  0  0  0  0  0
   49.1667    0.9910   -1.0492 N   0  0  0  0  0  0  0  0  0  0  0  0
   46.0690   -1.5347    2.0513 H   0  0  0  0  0  0  0  0  0  0  0  0
   47.9643   -2.9223    3.3766 H   0  0  0  0  0  0  0  0  0  0  0  0
   49.3449   -4.9096    2.1731 H   0  0  0  0  0  0  0  0  0  0  0  0
   49.3806   -6.6724    3.9274 H   0  0  0  0  0  0  0  0  0  0  0  0
   51.6934   -4.3591    6.4156 H   0  0  0  0  0  0  0  0  0  0  0  0
   51.7497   -2.4905    4.7751 H   0  0  0  0  0  0  0  0  0  0  0  0
   53.1431   -3.5425    2.7337 H   0  0  0  0  0  0  0  0  0  0  0  0
   55.0438   -2.1354    1.4374 H   0  0  0  0  0  0  0  0  0  0  0  0
   55.0484    2.1703   -1.5068 H   0  0  0  0  0  0  0  0  0  0  0  0
   53.1523    3.5549   -2.8356 H   0  0  0  0  0  0  0  0  0  0  0  0
   51.7328    2.4527   -4.8849 H   0  0  0  0  0  0  0  0  0  0  0  0
   51.6831    4.2951   -6.5556 H   0  0  0  0  0  0  0  0  0  0  0  0
   49.4387    6.6840   -4.0763 H   0  0  0  0  0  0  0  0  0  0  0  0
   49.3946    4.9483   -2.2949 H   0  0  0  0  0  0  0  0  0  0  0  0
   47.9741    2.9513   -3.4697 H   0  0  0  0  0  0  0  0  0  0  0  0
   46.0724    1.5930   -2.1225 H   0  0  0  0  0  0  0  0  0  0  0  0
   63.9886    0.0012   -0.0193 Ni  0  0  0  0  0  0  0  0  0  0  0  0
   60.5783    0.0109   -0.0188 C   0  0  0  0  0  0  0  0  0  0  0  0
   61.2494   -0.7402    0.9507 C   0  0  0  0  0  0  0  0  0  0  0  0
   60.5823   -1.4732    1.9787 C   0  0  0  0  0  0  0  0  0  0  0  0
   61.5358   -2.1783    2.6348 C   0  0  0  0  0  0  0  0  0  0  0  0
   62.7817   -1.8811    1.9965 C   0  0  0  0  0  0  0  0  0  0  0  0
   62.5988   -0.9575    0.9924 N   0  0  0  0  0  0  0  0  0  0  0  0
   63.9833   -2.5056    2.3050 C   0  0  0  0  0  0  0  0  0  0  0  0
   63.9822   -3.5871    3.3160 C   0  0  0  0  0  0  0  0  0  0  0  0
   63.2255   -4.7450    3.1389 C   0  0  0  0  0  0  0  0  0  0  0  0
   63.2583   -5.7291    4.1142 C   0  0  0  0  0  0  0  0  0  0  0  0
   63.9785   -5.6230    5.2263 N   0  0  0  0  0  0  0  0  0  0  0  0
   64.7008   -4.5216    5.4041 C   0  0  0  0  0  0  0  0  0  0  0  0
   64.7373   -3.4858    4.4840 C   0  0  0  0  0  0  0  0  0  0  0  0
   65.1868   -2.1547    1.7065 C   0  0  0  0  0  0  0  0  0  0  0  0
   66.4304   -2.8169    1.9568 C   0  0  0  0  0  0  0  0  0  0  0  0
   67.3872   -2.1105    1.3066 C   0  0  0  0  0  0  0  0  0  0  0  0
   65.3738   -1.0836    0.8629 N   0  0  0  0  0  0  0  0  0  0  0  0
   66.7243   -1.0272    0.6539 C   0  0  0  0  0  0  0  0  0  0  0  0
   67.3990    0.0033   -0.0071 C   0  0  0  0  0  0  0  0  0  0  0  0
   66.7277    1.0300   -0.6773 C   0  0  0  0  0  0  0  0  0  0  0  0
   67.3944    2.1076   -1.3358 C   0  0  0  0  0  0  0  0  0  0  0  0
   66.4422    2.8043   -2.0028 C   0  0  0  0  0  0  0  0  0  0  0  0
   65.1973    2.1442   -1.7537 C   0  0  0  0  0  0  0  0  0  0  0  0
   65.3789    1.0822   -0.8977 N   0  0  0  0  0  0  0  0  0  0  0  0
   63.9971    2.4920   -2.3602 C   0  0  0  0  0  0  0  0  0  0  0  0
   64.0052    3.5609   -3.3850 C   0  0  0  0  0  0  0  0  0  0  0  0
   64.7491    3.4300   -4.5571 C   0  0  0  0  0  0  0  0  0  0  0  0
   64.7226    4.4531   -5.4916 C   0  0  0  0  0  0  0  0  0  0  0  0
   64.0218    5.5697   -5.3228 N   0  0  0  0  0  0  0  0  0  0  0  0
   63.3135    5.7042   -4.2063 C   0  0  0  0  0  0  0  0  0  0  0  0
   63.2707    4.7340   -3.2174 C   0  0  0  0  0  0  0  0  0  0  0  0
   62.7919    1.8780   -2.0466 C   0  0  0  0  0  0  0  0  0  0  0  0
   61.5471    2.1817   -2.6839 C   0  0  0  0  0  0  0  0  0  0  0  0
   60.5893    1.4888   -2.0211 C   0  0  0  0  0  0  0  0  0  0  0  0
   61.2529    0.7557   -0.9908 C   0  0  0  0  0  0  0  0  0  0  0  0
   62.6037    0.9623   -1.0360 N   0  0  0  0  0  0  0  0  0  0  0  0
   59.5201   -1.4441    2.1609 H   0  0  0  0  0  0  0  0  0  0  0  0
   61.4159   -2.8398    3.4772 H   0  0  0  0  0  0  0  0  0  0  0  0
   62.6325   -4.8798    2.2421 H   0  0  0  0  0  0  0  0  0  0  0  0
   62.6810   -6.6415    3.9969 H   0  0  0  0  0  0  0  0  0  0  0  0
   65.2763   -4.4635    6.3233 H   0  0  0  0  0  0  0  0  0  0  0  0
   65.3316   -2.6005    4.6767 H   0  0  0  0  0  0  0  0  0  0  0  0
   66.5467   -3.7077    2.5521 H   0  0  0  0  0  0  0  0  0  0  0  0
   68.4491   -2.2918    1.2667 H   0  0  0  0  0  0  0  0  0  0  0  0
   68.4557    2.2910   -1.2893 H   0  0  0  0  0  0  0  0  0  0  0  0
   66.5616    3.6875   -2.6088 H   0  0  0  0  0  0  0  0  0  0  0  0
   65.3271    2.5322   -4.7411 H   0  0  0  0  0  0  0  0  0  0  0  0
   65.2887    4.3719   -6.4148 H   0  0  0  0  0  0  0  0  0  0  0  0
   62.7544    6.6288   -4.0965 H   0  0  0  0  0  0  0  0  0  0  0  0
   62.6872    4.8913   -2.3181 H   0  0  0  0  0  0  0  0  0  0  0  0
   61.4311    2.8403   -3.5291 H   0  0  0  0  0  0  0  0  0  0  0  0
   59.5265    1.4676   -2.2004 H   0  0  0  0  0  0  0  0  0  0  0  0
  2  3  4  0  0  0  0
  3  4  4  0  0  0  0
  4  5  2  0  0  0  0
  5  6  4  0  0  0  0
  1  7  1  0  0  0  0
  3  7  4  0  0  0  0
  6  7  4  0  0  0  0
  6  8  4  0  0  0  0
  8  9  1  0  0  0  0
  9 10  4  0  0  0  0
 10 11  4  0  0  0  0
 11 12  4  0  0  0  0
 12 13  4  0  0  0  0
  9 14  4  0  0  0  0
 13 14  4  0  0  0  0
  8 15  4  0  0  0  0
 15 16  4  0  0  0  0
 16 17  2  0  0  0  0
  1 18  1  0  0  0  0
 15 18  4  0  0  0  0
 17 19  4  0  0  0  0
 18 19  4  0  0  0  0
 19 20  4  0  0  0  0
 20 21  4  0  0  0  0
 21 22  4  0  0  0  0
 22 23  2  0  0  0  0
 23 24  4  0  0  0  0
  1 25  1  0  0  0  0
 21 25  4  0  0  0  0
 24 25  4  0  0  0  0
 24 26  4  0  0  0  0
 26 27  1  0  0  0  0
 27 28  4  0  0  0  0
 28 29  4  0  0  0  0
 29 30  4  0  0  0  0
 30 31  4  0  0  0  0
 27 32  4  0  0  0  0
 31 32  4  0  0  0  0
 26 33  4  0  0  0  0
 33 34  4  0  0  0  0
 34 35  2  0  0  0  0
  2 36  4  0  0  0  0
 35 36  4  0  0  0  0
  1 37  1  0  0  0  0
 33 37  4  0  0  0  0
 36 37  4  0  0  0  0
  2 38  1  0  0  0  0
  4 39  1  0  0  0  0
  5 40  1  0  0  0  0
 10 41  1  0  0  0  0
 11 42  1  0  0  0  0
 13 43  1  0  0  0  0
 14 44  1  0  0  0  0
 16 45  1  0  0  0  0
 17 46  1  0  0  0  0
 22 47  1  0  0  0  0
 23 48  1  0  0  0  0
 28 49  1  0  0  0  0
 29 50  1  0  0  0  0
 31 51  1  0  0  0  0
 32 52  1  0  0  0  0
 34 53  1  0  0  0  0
 35 54  1  0  0  0  0
 56 57  4  0  0  0  0
 57 58  4  0  0  0  0
 58 59  2  0  0  0  0
 59 60  4  0  0  0  0
 55 61  1  0  0  0  0
 57 61  4  0  0  0  0
 60 61  4  0  0  0  0
 60 62  4  0  0  0  0
 62 63  1  0  0  0  0
 63 64  4  0  0  0  0
 64 65  4  0  0  0  0
 65 66  4  0  0  0  0
 66 67  4  0  0  0  0
 63 68  4  0  0  0  0
 67 68  4  0  0  0  0
 62 69  4  0  0  0  0
 69 70  4  0  0  0  0
 70 71  2  0  0  0  0
 55 72  1  0  0  0  0
 69 72  4  0  0  0  0
 71 73  4  0  0  0  0
 72 73  4  0  0  0  0
 73 74  4  0  0  0  0
 74 75  4  0  0  0  0
 75 76  4  0  0  0  0
 76 77  2  0  0  0  0
 77 78  4  0  0  0  0
 55 79  1  0  0  0  0
 75 79  4  0  0  0  0
 78 79  4  0  0  0  0
 78 80  4  0  0  0  0
 80 81  1  0  0  0  0
 81 82  4  0  0  0  0
 82 83  4  0  0  0  0
 83 84  4  0  0  0  0
 84 85  4  0  0  0  0
 81 86  4  0  0  0  0
 85 86  4  0  0  0  0
 80 87  4  0  0  0  0
 87 88  4  0  0  0  0
 88 89  2  0  0  0  0
 56 90  4  0  0  0  0
 89 90  4  0  0  0  0
 55 91  1  0  0  0  0
 87 91  4  0  0  0  0
 90 91  4  0  0  0  0
 56 92  1  0  0  0  0
 58 93  1  0  0  0  0
 59 94  1  0  0  0  0
 64 95  1  0  0  0  0
 65 96  1  0  0  0  0
 67 97  1  0  0  0  0
 68 98  1  0  0  0  0
 70 99  1  0  0  0  0
 71100  1  0  0  0  0
 76101  1  0  0  0  0
 77102  1  0  0  0  0
 82103  1  0  0  0  0
 83104  1  0  0  0  0
 85105  1  0  0  0  0
 86106  1  0  0  0  0
 88107  1  0  0  0  0
 89108  1  0  0  0  0
 20110  4  0  0  0  0
109110  3  0  0  0  0
109111  4  0  0  0  0
111112  3  0  0  0  0
113114  3  0  0  0  0
113115  4  0  0  0  0
115116  3  0  0  0  0
117118  3  0  0  0  0
117119  4  0  0  0  0
 74120  4  0  0  0  0
119120  3  0  0  0  0
112122  4  0  0  0  0
122123  4  0  0  0  0
123124  4  0  0  0  0
124125  2  0  0  0  0
125126  4  0  0  0  0
121127  1  0  0  0  0
123127  4  0  0  0  0
126127  4  0  0  0  0
126128  4  0  0  0  0
128129  1  0  0  0  0
129130  4  0  0  0  0
130131  4  0  0  0  0
131132  4  0  0  0  0
132133  4  0  0  0  0
129134  4  0  0  0  0
133134  4  0  0  0  0
128135  4  0  0  0  0
135136  4  0  0  0  0
136137  2  0  0  0  0
121138  1  0  0  0  0
135138  4  0  0  0  0
137139  4  0  0  0  0
138139  4  0  0  0  0
114140  4  0  0  0  0
139140  4  0  0  0  0
140141  4  0  0  0  0
141142  4  0  0  0  0
142143  2  0  0  0  0
143144  4  0  0  0  0
121145  1  0  0  0  0
141145  4  0  0  0  0
144145  4  0  0  0  0
144146  4  0  0  0  0
146147  1  0  0  0  0
147148  4  0  0  0  0
148149  4  0  0  0  0
149150  4  0  0  0  0
150151  4  0  0  0  0
147152  4  0  0  0  0
151152  4  0  0  0  0
146153  4  0  0  0  0
153154  4  0  0  0  0
154155  2  0  0  0  0
122156  4  0  0  0  0
155156  4  0  0  0  0
121157  1  0  0  0  0
153157  4  0  0  0  0
156157  4  0  0  0  0
124158  1  0  0  0  0
125159  1  0  0  0  0
130160  1  0  0  0  0
131161  1  0  0  0  0
133162  1  0  0  0  0
134163  1  0  0  0  0
136164  1  0  0  0  0
137165  1  0  0  0  0
142166  1  0  0  0  0
143167  1  0  0  0  0
148168  1  0  0  0  0
149169  1  0  0  0  0
151170  1  0  0  0  0
152171  1  0  0  0  0
154172  1  0  0  0  0
155173  1  0  0  0  0
116175  4  0  0  0  0
175176  4  0  0  0  0
176177  4  0  0  0  0
177178  2  0  0  0  0
178179  4  0  0  0  0
174180  1  0  0  0  0
176180  4  0  0  0  0
179180  4  0  0  0  0
179181  4  0  0  0  0
181182  1  0  0  0  0
182183  4  0  0  0  0
183184  4  0  0  0  0
184185  4  0  0  0  0
185186  4  0  0  0  0
182187  4  0  0  0  0
186187  4  0  0  0  0
181188  4  0  0  0  0
188189  4  0  0  0  0
189190  2  0  0  0  0
174191  1  0  0  0  0
188191  4  0  0  0  0
190192  4  0  0  0  0
191192  4  0  0  0  0
118193  4  0  0  0  0
192193  4  0  0  0  0
193194  4  0  0  0  0
194195  4  0  0  0  0
195196  2  0  0  0  0
196197  4  0  0  0  0
174198  1  0  0  0  0
194198  4  0  0  0  0
197198  4  0  0  0  0
197199  4  0  0  0  0
199200  1  0  0  0  0
200201  4  0  0  0  0
201202  4  0  0  0  0
202203  4  0  0  0  0
203204  4  0  0  0  0
200205  4  0  0  0  0
204205  4  0  0  0  0
199206  4  0  0  0  0
206207  4  0  0  0  0
207208  2  0  0  0  0
175209  4  0  0  0  0
208209  4  0  0  0  0
174210  1  0  0  0  0
206210  4  0  0  0  0
209210  4  0  0  0  0
177211  1  0  0  0  0
178212  1  0  0  0  0
183213  1  0  0  0  0
184214  1  0  0  0  0
186215  1  0  0  0  0
187216  1  0  0  0  0
189217  1  0  0  0  0
190218  1  0  0  0  0
195219  1  0  0  0  0
196220  1  0  0  0  0
201221  1  0  0  0  0
202222  1  0  0  0  0
204223  1  0  0  0  0
205224  1  0  0  0  0
207225  1  0  0  0  0
208226  1  0  0  0  0
M  END
