128

C 11.178757 0.031165 -0.111544
C 11.913513 -1.251071 -0.609032
C 11.318429 -2.344043 -1.195836
C 12.343888 -3.294434 -1.440146
C 13.530055 -2.750026 -0.987150
N 13.263566 -1.482050 -0.535440
C 14.947856 -3.457027 -0.962722
C 14.977046 -4.927846 -1.131108
C 15.270931 -5.498940 -2.376629
C 15.286535 -6.886985 -2.528165
C 15.006486 -7.702655 -1.428522
C 15.017715 -9.172909 -1.565054
O 15.255732 -9.746424 -2.621747
C 14.711803 -7.143580 -0.181083
C 14.697161 -5.756025 -0.036601
C 16.077786 -2.739922 -0.720449
C 17.378593 -3.370427 -0.625278
C 18.279855 -2.433512 -0.354821
N 16.275360 -1.401788 -0.504922
C 17.603232 -1.154289 -0.271235
C 18.268927 -0.000193 0.000053
C 17.490823 1.381175 0.066155
C 18.032924 2.633751 -0.145051
C 17.006361 3.586090 0.072514
C 15.863128 2.887769 0.398475
N 16.154604 1.545118 0.339680
C 14.450754 3.513922 0.754526
C 14.410592 4.919860 1.211287
C 14.707447 5.243363 2.541056
C 14.678987 6.573991 2.964923
C 14.355039 7.581251 2.051894
C 14.320865 8.994946 2.476898
O 14.560187 9.357288 3.623124
C 14.057789 7.270258 0.721050
C 14.087151 5.939119 0.304486
C 13.325990 2.763651 0.626570
C 12.001339 3.271286 0.938353
C 11.116799 2.310078 0.689713
C 11.841519 1.154777 0.220804
N 13.164014 1.470831 0.214540
H 10.099276 -0.002792 -0.024692
H 10.265946 -2.452314 -1.408785
H 12.224753 -4.275340 -1.874842
H 13.957788 -0.818371 -0.200218
H 15.490585 -4.847101 -3.220047
H 15.518049 -7.319973 -3.497196
H 14.794914 -9.744748 -0.648878
H 14.493563 -7.763250 0.682396
H 14.471926 -5.299869 0.925683
H 17.591159 -4.417866 -0.742554
H 19.331127 -2.615890 -0.226628
H 19.057372 2.843871 -0.412466
H 17.094362 4.659678 0.003602
H 15.471394 0.797433 0.429740
H 14.957302 4.445893 3.238228
H 14.908981 6.813845 3.999011
H 14.063859 9.728568 1.694126
H 13.802722 8.040797 0.000272
H 13.856143 5.673716 -0.726128
H 11.769245 4.253010 1.309731
H 10.051924 2.373394 0.819321
C 34.760501 0.035620 -0.110195
C 34.025745 1.378458 0.187146
C 34.620829 2.613364 0.305185
C 33.595370 3.539651 0.629102
C 32.409203 2.835398 0.704024
N 32.675692 1.529820 0.376505
C 30.991401 3.410102 1.116531
C 30.962212 4.727292 1.792308
C 30.668326 5.893372 1.072775
C 30.652723 7.132343 1.716655
C 30.932772 7.201030 3.084067
C 30.921542 8.500079 3.786034
O 30.683526 9.563428 3.224957
C 31.227455 6.043887 3.811864
C 31.242097 4.809236 3.162385
C 29.861471 2.679049 0.920326
C 28.560665 3.150863 1.349261
C 27.659402 2.221284 1.054574
N 29.663898 1.446109 0.357374
C 28.336026 1.110551 0.414521
C 27.670331 -0.000193 0.000053
C 28.448435 -1.186217 -0.711209
C 27.906334 -2.111255 -1.581760
C 28.932897 -3.024327 -1.929011
C 30.076130 -2.624109 -1.270430
N 29.784653 -1.474352 -0.574566
C 31.488503 -3.342601 -1.321516
C 31.528666 -4.765771 -1.721361
C 31.231811 -5.772578 -0.794388
C 31.260271 -7.114842 -1.179829
C 31.584219 -7.446456 -2.498246
C 31.618392 -8.858465 -2.928819
O 31.379071 -9.795775 -2.176106
C 31.881468 -6.449462 -3.433054
C 31.852107 -5.110824 -3.041255
C 32.613267 -2.647365 -1.011796
C 33.937919 -3.242688 -1.033971
C 34.822458 -2.304998 -0.707656
C 34.097739 -1.083630 -0.456949
N 32.775244 -1.343125 -0.637479
H 35.839981 0.015696 -0.019094
H 35.673312 2.821575 0.188062
H 33.714505 4.596938 0.811537
H 31.981470 0.791659 0.287272
H 30.448673 5.818869 0.009432
H 30.421208 8.030141 1.150565
H 31.144343 8.467659 4.865538
H 31.445695 6.080495 4.874053
H 31.467332 3.895904 3.710011
H 28.348099 4.087432 1.832709
H 26.608131 2.301920 1.262404
H 26.881885 -2.137745 -1.920817
H 28.844895 -3.879372 -2.581881
H 30.467863 -0.902204 -0.084882
H 30.981955 -5.495780 0.228054
H 31.030276 -7.888032 -0.452474
H 31.875399 -9.034657 -3.987067
H 32.136536 -6.690758 -4.460199
H 32.083115 -4.318304 -3.751546
H 34.170013 -4.265532 -1.269542
H 35.887334 -2.429576 -0.634939
C 23.573549 0.001119 0.008485
C 22.364610 -0.012336 0.000038
C 20.943081 -0.003517 -0.011945
C 19.731411 0.003922 -0.001082
C 24.990153 -0.005556 0.009019
C 26.210849 0.003922 -0.001082
