110

Fe 13.973609 0.008839 0.000819
C 10.607574 -0.105313 -0.031118
C 11.270513 -1.263739 0.026436
C 10.618877 -2.566669 0.085247
C 11.558735 -3.487041 0.192173
C 12.864898 -2.814267 0.206126
N 12.688738 -1.401353 0.096190
C 14.053793 -3.432198 0.359667
C 14.089568 -4.903391 0.510011
C 14.294841 -5.479851 1.770550
C 14.323511 -6.871153 1.891548
N 14.150849 -7.654981 0.793823
C 13.948908 -7.120030 -0.439933
C 13.915569 -5.733360 -0.605700
C 15.348034 -2.701448 0.399557
C 16.638051 -3.339141 0.689021
C 17.572679 -2.414899 0.605242
N 15.489891 -1.437287 0.140408
C 16.889054 -1.177169 0.252266
C 17.485440 0.000000 -0.000000
C 16.727576 1.215866 -0.373300
C 17.270870 2.289319 -0.933162
C 16.228198 3.288891 -1.051258
C 15.116543 2.762120 -0.552229
N 15.341294 1.425064 -0.101763
C 13.831437 3.495374 -0.415320
C 13.854284 4.978015 -0.462515
C 13.192572 5.671947 -1.486061
C 13.236782 7.067855 -1.508850
N 13.923416 7.745040 -0.550098
C 14.582618 7.097157 0.446437
C 14.563717 5.701822 0.506893
C 12.664546 2.846595 -0.237999
C 11.352339 3.462891 -0.048136
C 10.490098 2.469360 0.045671
C 11.242490 1.221413 -0.069706
N 12.510853 1.428582 -0.235191
H 9.524425 -0.133295 -0.031313
H 9.554492 -2.761206 0.060098
H 11.370199 -4.550023 0.269768
H 14.431243 -4.858440 2.646993
H 14.482325 -7.328298 2.859008
H 13.813736 -7.771592 -1.292860
H 13.754134 -5.310369 -1.589432
H 16.816145 -4.379863 0.923759
H 18.630437 -2.578024 0.759280
H 18.304049 2.414423 -1.226820
H 16.346183 4.288004 -1.449033
H 12.651928 5.137274 -2.256332
H 12.726122 7.613319 -2.291173
H 15.120875 7.665408 1.193576
H 15.089211 5.190722 1.304128
H 11.107815 4.515231 0.012691
H 9.422979 2.573870 0.191916
Fe 24.216686 -0.008219 0.003353
C 27.582720 0.091717 -0.060392
C 26.919782 1.216836 -0.342120
C 27.571417 2.480582 -0.664657
C 26.631559 3.392285 -0.829934
C 25.325397 2.752628 -0.620985
N 25.501556 1.368785 -0.315388
C 24.136502 3.388507 -0.653730
C 24.100726 4.839860 -0.937608
C 23.895453 5.757902 0.100883
C 23.866784 7.124283 -0.187846
N 24.039446 7.555105 -1.466040
C 24.241386 6.684566 -2.490973
C 24.274725 5.309601 -2.246426
C 22.842260 2.700920 -0.403109
C 21.552244 3.395224 -0.311548
C 20.617615 2.486550 -0.122998
N 22.700403 1.416023 -0.283527
C 21.301241 1.199662 -0.100875
C 20.704854 -0.000000 0.000000
C 21.462718 -1.271876 -0.003679
C 20.919424 -2.461731 -0.227268
C 21.962096 -3.452461 -0.049651
C 23.073751 -2.803358 0.274671
N 22.849001 -1.393093 0.316949
C 24.358858 -3.465134 0.618849
C 24.336010 -4.897452 1.004748
C 24.997723 -5.858990 0.227167
C 24.953513 -7.201224 0.611202
N 24.266878 -7.570414 1.725421
C 23.607676 -6.660790 2.490545
C 23.626577 -5.308152 2.142717
C 25.525749 -2.792827 0.599887
C 26.837956 -3.327301 0.960728
C 27.700196 -2.349414 0.761628
C 26.947805 -1.188919 0.288413
N 25.679441 -1.435250 0.190307
H 28.665870 0.118433 -0.068714
H 28.635803 2.659404 -0.745278
H 26.820095 4.431909 -1.064737
H 23.759052 5.418146 1.120133
H 23.707970 7.842956 0.604915
H 24.376559 7.060007 -3.496488
H 24.436160 4.618876 -3.064685
H 21.374149 4.459237 -0.389525
H 19.559858 2.687412 -0.023041
H 19.886245 -2.666808 -0.471868
H 21.844112 -4.524063 -0.139766
H 25.538367 -5.571357 -0.665280
H 25.464172 -7.950576 0.021258
H 23.069419 -6.987275 3.370622
H 23.101083 -4.587345 2.756920
H 27.082480 -4.316499 1.324879
H 28.767316 -2.406891 0.931941
C 18.484188 0.000000 -0.000000
C 19.706106 0.000000 -0.000000
