 xtb: 6.5.1 (b24c23e)
          07302208423D

242281  0     0  0            999 V2000
   50.7601    0.0360    0.0599 Co  0  0  0  0  0  0  0  0  0  0  0  0
   47.3922    0.0388    0.2059 C   0  0  0  0  0  0  0  0  0  0  0  0
   48.0451    1.2490    0.1063 C   0  0  0  0  0  0  0  0  0  0  0  0
   47.3824    2.5146    0.0195 C   0  0  0  0  0  0  0  0  0  0  0  0
   48.3423    3.4636    0.1247 C   0  0  0  0  0  0  0  0  0  0  0  0
   49.5884    2.7752    0.2964 C   0  0  0  0  0  0  0  0  0  0  0  0
   49.4028    1.4194    0.2103 N   0  0  0  0  0  0  0  0  0  0  0  0
   50.7843    3.3930    0.6403 C   0  0  0  0  0  0  0  0  0  0  0  0
   50.7986    4.8511    0.8906 C   0  0  0  0  0  0  0  0  0  0  0  0
   49.9861    5.4095    1.8803 C   0  0  0  0  0  0  0  0  0  0  0  0
   50.0035    6.7716    2.1206 C   0  0  0  0  0  0  0  0  0  0  0  0
   50.8344    7.6058    1.3667 C   0  0  0  0  0  0  0  0  0  0  0  0
   50.8531    9.0084    1.6096 C   0  0  0  0  0  0  0  0  0  0  0  0
   50.8682   10.1419    1.8071 N   0  0  0  0  0  0  0  0  0  0  0  0
   51.6474    7.0524    0.3731 C   0  0  0  0  0  0  0  0  0  0  0  0
   51.6297    5.6887    0.1426 C   0  0  0  0  0  0  0  0  0  0  0  0
   51.9654    2.6770    0.7716 C   0  0  0  0  0  0  0  0  0  0  0  0
   53.2078    3.2414    1.2061 C   0  0  0  0  0  0  0  0  0  0  0  0
   54.1524    2.2849    1.0355 C   0  0  0  0  0  0  0  0  0  0  0  0
   52.1391    1.3625    0.4046 N   0  0  0  0  0  0  0  0  0  0  0  0
   53.4836    1.1399    0.5040 C   0  0  0  0  0  0  0  0  0  0  0  0
   54.1499    0.0142    0.0124 C   0  0  0  0  0  0  0  0  0  0  0  0
   53.4572   -1.0930   -0.4854 C   0  0  0  0  0  0  0  0  0  0  0  0
   54.0956   -2.2277   -1.0732 C   0  0  0  0  0  0  0  0  0  0  0  0
   53.1296   -3.1569   -1.2720 C   0  0  0  0  0  0  0  0  0  0  0  0
   51.9068   -2.5916   -0.7853 C   0  0  0  0  0  0  0  0  0  0  0  0
   52.1113   -1.2953   -0.3699 N   0  0  0  0  0  0  0  0  0  0  0  0
   50.7246   -3.3000   -0.6303 C   0  0  0  0  0  0  0  0  0  0  0  0
   50.7033   -4.7455   -0.9445 C   0  0  0  0  0  0  0  0  0  0  0  0
   49.8232   -5.2474   -1.9064 C   0  0  0  0  0  0  0  0  0  0  0  0
   49.8031   -6.5974   -2.2070 C   0  0  0  0  0  0  0  0  0  0  0  0
   50.6632   -7.4764   -1.5421 C   0  0  0  0  0  0  0  0  0  0  0  0
   50.6441   -8.8669   -1.8468 C   0  0  0  0  0  0  0  0  0  0  0  0
   50.6301   -9.9908   -2.0930 N   0  0  0  0  0  0  0  0  0  0  0  0
   51.5425   -6.9800   -0.5751 C   0  0  0  0  0  0  0  0  0  0  0  0
   51.5616   -5.6279   -0.2840 C   0  0  0  0  0  0  0  0  0  0  0  0
   49.5602   -2.6908   -0.1779 C   0  0  0  0  0  0  0  0  0  0  0  0
   48.3318   -3.3843    0.0791 C   0  0  0  0  0  0  0  0  0  0  0  0
   47.3931   -2.4400    0.3245 C   0  0  0  0  0  0  0  0  0  0  0  0
   48.0499   -1.1724    0.2230 C   0  0  0  0  0  0  0  0  0  0  0  0
   49.3908   -1.3401   -0.0198 N   0  0  0  0  0  0  0  0  0  0  0  0
   46.3100    0.0392    0.2607 H   0  0  0  0  0  0  0  0  0  0  0  0
   46.3183    2.6399   -0.1021 H   0  0  0  0  0  0  0  0  0  0  0  0
   48.2300    4.5353    0.0952 H   0  0  0  0  0  0  0  0  0  0  0  0
   49.3509    4.7644    2.4768 H   0  0  0  0  0  0  0  0  0  0  0  0
   49.3753    7.1965    2.8946 H   0  0  0  0  0  0  0  0  0  0  0  0
   52.2903    7.6964   -0.2153 H   0  0  0  0  0  0  0  0  0  0  0  0
   52.2531    5.2645   -0.6365 H   0  0  0  0  0  0  0  0  0  0  0  0
   53.3300    4.2404    1.5918 H   0  0  0  0  0  0  0  0  0  0  0  0
   55.2102    2.3376    1.2366 H   0  0  0  0  0  0  0  0  0  0  0  0
   55.1486   -2.2907   -1.2956 H   0  0  0  0  0  0  0  0  0  0  0  0
   53.2261   -4.1392   -1.7048 H   0  0  0  0  0  0  0  0  0  0  0  0
   49.1634   -4.5672   -2.4330 H   0  0  0  0  0  0  0  0  0  0  0  0
   49.1224   -6.9783   -2.9593 H   0  0  0  0  0  0  0  0  0  0  0  0
   52.2073   -7.6592   -0.0544 H   0  0  0  0  0  0  0  0  0  0  0  0
   52.2354   -5.2490    0.4761 H   0  0  0  0  0  0  0  0  0  0  0  0
   48.2169   -4.4560    0.0697 H   0  0  0  0  0  0  0  0  0  0  0  0
   46.3454   -2.5694    0.5444 H   0  0  0  0  0  0  0  0  0  0  0  0
   90.9197    0.0088    0.0837 Co  0  0  0  0  0  0  0  0  0  0  0  0
   94.2891    0.0191    0.2349 C   0  0  0  0  0  0  0  0  0  0  0  0
   93.6382   -1.1954    0.2000 C   0  0  0  0  0  0  0  0  0  0  0  0
   94.3047   -2.4618    0.1831 C   0  0  0  0  0  0  0  0  0  0  0  0
   93.3467   -3.4072    0.3276 C   0  0  0  0  0  0  0  0  0  0  0  0
   92.0970   -2.7153    0.4538 C   0  0  0  0  0  0  0  0  0  0  0  0
   92.2799   -1.3640    0.3020 N   0  0  0  0  0  0  0  0  0  0  0  0
   90.9006   -3.3207    0.8127 C   0  0  0  0  0  0  0  0  0  0  0  0
   90.8874   -4.7666    1.1277 C   0  0  0  0  0  0  0  0  0  0  0  0
   91.6851   -5.2762    2.1550 C   0  0  0  0  0  0  0  0  0  0  0  0
   91.6679   -6.6259    2.4570 C   0  0  0  0  0  0  0  0  0  0  0  0
   90.8519   -7.4968    1.7289 C   0  0  0  0  0  0  0  0  0  0  0  0
   90.8324   -8.8865    2.0368 C   0  0  0  0  0  0  0  0  0  0  0  0
   90.8170  -10.0096    2.2868 N   0  0  0  0  0  0  0  0  0  0  0  0
   90.0539   -6.9924    0.6976 C   0  0  0  0  0  0  0  0  0  0  0  0
   90.0716   -5.6406    0.4051 C   0  0  0  0  0  0  0  0  0  0  0  0
   89.7165   -2.6028    0.9029 C   0  0  0  0  0  0  0  0  0  0  0  0
   88.4736   -3.1535    1.3530 C   0  0  0  0  0  0  0  0  0  0  0  0
   87.5279   -2.2062    1.1447 C   0  0  0  0  0  0  0  0  0  0  0  0
   89.5423   -1.3042    0.4852 N   0  0  0  0  0  0  0  0  0  0  0  0
   88.1954   -1.0797    0.5733 C   0  0  0  0  0  0  0  0  0  0  0  0
   87.5287    0.0261    0.0458 C   0  0  0  0  0  0  0  0  0  0  0  0
   88.2163    1.1125   -0.4959 C   0  0  0  0  0  0  0  0  0  0  0  0
   87.5736    2.2219   -1.1258 C   0  0  0  0  0  0  0  0  0  0  0  0
   88.5388    3.1387   -1.3773 C   0  0  0  0  0  0  0  0  0  0  0  0
   89.7661    2.5936   -0.8794 C   0  0  0  0  0  0  0  0  0  0  0  0
   89.5653    1.3182   -0.4034 N   0  0  0  0  0  0  0  0  0  0  0  0
   90.9509    3.3073   -0.7741 C   0  0  0  0  0  0  0  0  0  0  0  0
   90.9710    4.7347   -1.1639 C   0  0  0  0  0  0  0  0  0  0  0  0
   91.8366    5.1814   -2.1653 C   0  0  0  0  0  0  0  0  0  0  0  0
   91.8565    6.5136   -2.5370 C   0  0  0  0  0  0  0  0  0  0  0  0
   91.0108    7.4302   -1.9052 C   0  0  0  0  0  0  0  0  0  0  0  0
   91.0295    8.8024   -2.2833 C   0  0  0  0  0  0  0  0  0  0  0  0
   91.0453    9.9120   -2.5879 N   0  0  0  0  0  0  0  0  0  0  0  0
   90.1464    6.9893   -0.8987 C   0  0  0  0  0  0  0  0  0  0  0  0
   90.1274    5.6545   -0.5364 C   0  0  0  0  0  0  0  0  0  0  0  0
   92.1177    2.7216   -0.3010 C   0  0  0  0  0  0  0  0  0  0  0  0
   93.3472    3.4279   -0.0885 C   0  0  0  0  0  0  0  0  0  0  0  0
   94.2863    2.4992    0.2084 C   0  0  0  0  0  0  0  0  0  0  0  0
   93.6295    1.2277    0.1809 C   0  0  0  0  0  0  0  0  0  0  0  0
   92.2879    1.3811   -0.0682 N   0  0  0  0  0  0  0  0  0  0  0  0
   95.3710    0.0235    0.2928 H   0  0  0  0  0  0  0  0  0  0  0  0
   95.3701   -2.5896    0.0767 H   0  0  0  0  0  0  0  0  0  0  0  0
   93.4620   -4.4787    0.3530 H   0  0  0  0  0  0  0  0  0  0  0  0
   92.3086   -4.6022    2.7314 H   0  0  0  0  0  0  0  0  0  0  0  0
   92.2844   -7.0127    3.2600 H   0  0  0  0  0  0  0  0  0  0  0  0
   89.4227   -7.6652    0.1289 H   0  0  0  0  0  0  0  0  0  0  0  0
   89.4595   -5.2548   -0.4023 H   0  0  0  0  0  0  0  0  0  0  0  0
   88.3523   -4.1381    1.7745 H   0  0  0  0  0  0  0  0  0  0  0  0
   86.4695   -2.2534    1.3445 H   0  0  0  0  0  0  0  0  0  0  0  0
   86.5183    2.2768   -1.3393 H   0  0  0  0  0  0  0  0  0  0  0  0
   88.4390    4.1009   -1.8525 H   0  0  0  0  0  0  0  0  0  0  0  0
   92.4853    4.4714   -2.6658 H   0  0  0  0  0  0  0  0  0  0  0  0
   92.5258    6.8513   -3.3197 H   0  0  0  0  0  0  0  0  0  0  0  0
   89.4930    7.6980   -0.4035 H   0  0  0  0  0  0  0  0  0  0  0  0
   89.4650    5.3191    0.2536 H   0  0  0  0  0  0  0  0  0  0  0  0
   93.4621    4.4973   -0.1598 H   0  0  0  0  0  0  0  0  0  0  0  0
   95.3346    2.6406    0.4179 H   0  0  0  0  0  0  0  0  0  0  0  0
   56.7747   -0.0068   -0.0024 C   0  0  0  0  0  0  0  0  0  0  0  0
   55.5520    0.0014    0.0045 C   0  0  0  0  0  0  0  0  0  0  0  0
   58.1225   -0.0119   -0.0109 C   0  0  0  0  0  0  0  0  0  0  0  0
   59.3455   -0.0153   -0.0184 C   0  0  0  0  0  0  0  0  0  0  0  0
   70.1596    0.0152    0.0164 C   0  0  0  0  0  0  0  0  0  0  0  0
   68.9365    0.0110    0.0099 C   0  0  0  0  0  0  0  0  0  0  0  0
   71.5072    0.0203    0.0198 C   0  0  0  0  0  0  0  0  0  0  0  0
   72.7302    0.0271    0.0192 C   0  0  0  0  0  0  0  0  0  0  0  0
   83.5493    0.0533    0.0339 C   0  0  0  0  0  0  0  0  0  0  0  0
   82.3281    0.0590    0.0257 C   0  0  0  0  0  0  0  0  0  0  0  0
   84.9008    0.0460    0.0405 C   0  0  0  0  0  0  0  0  0  0  0  0
   86.1217    0.0384    0.0437 C   0  0  0  0  0  0  0  0  0  0  0  0
   64.1410   -0.0064    0.0012 Co  0  0  0  0  0  0  0  0  0  0  0  0
   60.7467   -0.0103   -0.0257 C   0  0  0  0  0  0  0  0  0  0  0  0
   61.4327   -1.2162   -0.2008 C   0  0  0  0  0  0  0  0  0  0  0  0
   60.7867   -2.4825   -0.3359 C   0  0  0  0  0  0  0  0  0  0  0  0
   61.7454   -3.3698   -0.6989 C   0  0  0  0  0  0  0  0  0  0  0  0
   62.9709   -2.6361   -0.7921 C   0  0  0  0  0  0  0  0  0  0  0  0
   62.7760   -1.3266   -0.4220 N   0  0  0  0  0  0  0  0  0  0  0  0
   64.1541   -3.1477   -1.3090 C   0  0  0  0  0  0  0  0  0  0  0  0
   64.1581   -4.5172   -1.8684 C   0  0  0  0  0  0  0  0  0  0  0  0
   63.3098   -4.8514   -2.9268 C   0  0  0  0  0  0  0  0  0  0  0  0
   63.3139   -6.1293   -3.4560 C   0  0  0  0  0  0  0  0  0  0  0  0
   64.1657   -7.1039   -2.9278 C   0  0  0  0  0  0  0  0  0  0  0  0
   64.1707   -8.4212   -3.4680 C   0  0  0  0  0  0  0  0  0  0  0  0
   64.1757   -9.4856   -3.9051 N   0  0  0  0  0  0  0  0  0  0  0  0
   65.0129   -6.7759   -1.8652 C   0  0  0  0  0  0  0  0  0  0  0  0
   65.0092   -5.4940   -1.3457 C   0  0  0  0  0  0  0  0  0  0  0  0
   65.3331   -2.4153   -1.3108 C   0  0  0  0  0  0  0  0  0  0  0  0
   66.5692   -2.8771   -1.8662 C   0  0  0  0  0  0  0  0  0  0  0  0
   67.5223   -1.9921   -1.4847 C   0  0  0  0  0  0  0  0  0  0  0  0
   65.5157   -1.2137   -0.6662 N   0  0  0  0  0  0  0  0  0  0  0  0
   66.8616   -0.9876   -0.7136 C   0  0  0  0  0  0  0  0  0  0  0  0
   67.5353    0.0098   -0.0019 C   0  0  0  0  0  0  0  0  0  0  0  0
   66.8480    1.0099    0.6931 C   0  0  0  0  0  0  0  0  0  0  0  0
   67.4925    2.0217    1.4679 C   0  0  0  0  0  0  0  0  0  0  0  0
   66.5331    2.9148    1.8139 C   0  0  0  0  0  0  0  0  0  0  0  0
   65.3089    2.4473    1.2379 C   0  0  0  0  0  0  0  0  0  0  0  0
   65.5052    1.2423    0.6055 N   0  0  0  0  0  0  0  0  0  0  0  0
   64.1269    3.1753    1.2098 C   0  0  0  0  0  0  0  0  0  0  0  0
   64.1212    4.5524    1.7501 C   0  0  0  0  0  0  0  0  0  0  0  0
   63.2637    4.8989    2.7972 C   0  0  0  0  0  0  0  0  0  0  0  0
   63.2604    6.1840    3.3087 C   0  0  0  0  0  0  0  0  0  0  0  0
   64.1145    7.1533    2.7743 C   0  0  0  0  0  0  0  0  0  0  0  0
   64.1111    8.4778    3.2966 C   0  0  0  0  0  0  0  0  0  0  0  0
   64.1083    9.5478    3.7199 N   0  0  0  0  0  0  0  0  0  0  0  0
   64.9718    6.8125    1.7240 C   0  0  0  0  0  0  0  0  0  0  0  0
   64.9753    5.5236    1.2221 C   0  0  0  0  0  0  0  0  0  0  0  0
   62.9501    2.6473    0.6963 C   0  0  0  0  0  0  0  0  0  0  0  0
   61.7164    3.3672    0.6016 C   0  0  0  0  0  0  0  0  0  0  0  0
   60.7637    2.4643    0.2633 C   0  0  0  0  0  0  0  0  0  0  0  0
   61.4223    1.2032    0.1382 C   0  0  0  0  0  0  0  0  0  0  0  0
   62.7674    1.3322    0.3369 N   0  0  0  0  0  0  0  0  0  0  0  0
   59.7339   -2.6529   -0.1790 H   0  0  0  0  0  0  0  0  0  0  0  0
   61.6423   -4.4258   -0.8880 H   0  0  0  0  0  0  0  0  0  0  0  0
   62.6568   -4.0948   -3.3469 H   0  0  0  0  0  0  0  0  0  0  0  0
   62.6584   -6.3792   -4.2819 H   0  0  0  0  0  0  0  0  0  0  0  0
   65.6711   -7.5302   -1.4503 H   0  0  0  0  0  0  0  0  0  0  0  0
   65.6584   -5.2467   -0.5134 H   0  0  0  0  0  0  0  0  0  0  0  0
   66.6833   -3.7657   -2.4652 H   0  0  0  0  0  0  0  0  0  0  0  0
   68.5799   -2.0076   -1.6930 H   0  0  0  0  0  0  0  0  0  0  0  0
   68.5447    2.0369    1.7019 H   0  0  0  0  0  0  0  0  0  0  0  0
   66.6351    3.8105    2.4046 H   0  0  0  0  0  0  0  0  0  0  0  0
   62.6094    4.1466    3.2230 H   0  0  0  0  0  0  0  0  0  0  0  0
   62.5976    6.4437    4.1258 H   0  0  0  0  0  0  0  0  0  0  0  0
   65.6324    7.5623    1.3048 H   0  0  0  0  0  0  0  0  0  0  0  0
   65.6329    5.2660    0.3996 H   0  0  0  0  0  0  0  0  0  0  0  0
   61.6035    4.4246    0.7769 H   0  0  0  0  0  0  0  0  0  0  0  0
   59.7075    2.6213    0.1153 H   0  0  0  0  0  0  0  0  0  0  0  0
   77.5272    0.0516    0.0053 Co  0  0  0  0  0  0  0  0  0  0  0  0
   74.1318    0.0349    0.0141 C   0  0  0  0  0  0  0  0  0  0  0  0
   74.8180   -1.1669   -0.1833 C   0  0  0  0  0  0  0  0  0  0  0  0
   74.1704   -2.4310   -0.3348 C   0  0  0  0  0  0  0  0  0  0  0  0
   75.1292   -3.3162   -0.7009 C   0  0  0  0  0  0  0  0  0  0  0  0
   76.3567   -2.5836   -0.7817 C   0  0  0  0  0  0  0  0  0  0  0  0
   76.1624   -1.2775   -0.3961 N   0  0  0  0  0  0  0  0  0  0  0  0
   77.5394   -3.0934   -1.2977 C   0  0  0  0  0  0  0  0  0  0  0  0
   77.5444   -4.4604   -1.8636 C   0  0  0  0  0  0  0  0  0  0  0  0
   76.6998   -4.7891   -2.9267 C   0  0  0  0  0  0  0  0  0  0  0  0
   76.7030   -6.0652   -3.4603 C   0  0  0  0  0  0  0  0  0  0  0  0
   77.5507   -7.0435   -2.9323 C   0  0  0  0  0  0  0  0  0  0  0  0
   77.5539   -8.3589   -3.4767 C   0  0  0  0  0  0  0  0  0  0  0  0
   77.5564   -9.4224   -3.9162 N   0  0  0  0  0  0  0  0  0  0  0  0
   78.3952   -6.7206   -1.8659 C   0  0  0  0  0  0  0  0  0  0  0  0
   78.3921   -5.4406   -1.3418 C   0  0  0  0  0  0  0  0  0  0  0  0
   78.7192   -2.3605   -1.2951 C   0  0  0  0  0  0  0  0  0  0  0  0
   79.9539   -2.8190   -1.8559 C   0  0  0  0  0  0  0  0  0  0  0  0
   80.9071   -1.9338   -1.4758 C   0  0  0  0  0  0  0  0  0  0  0  0
   78.9020   -1.1636   -0.6445 N   0  0  0  0  0  0  0  0  0  0  0  0
   80.2486   -0.9327   -0.6984 C   0  0  0  0  0  0  0  0  0  0  0  0
   80.9222    0.0598    0.0163 C   0  0  0  0  0  0  0  0  0  0  0  0
   80.2382    1.0550    0.7166 C   0  0  0  0  0  0  0  0  0  0  0  0
   80.8858    2.0676    1.4880 C   0  0  0  0  0  0  0  0  0  0  0  0
   79.9274    2.9584    1.8414 C   0  0  0  0  0  0  0  0  0  0  0  0
   78.6998    2.4890    1.2741 C   0  0  0  0  0  0  0  0  0  0  0  0
   78.8921    1.2843    0.6417 N   0  0  0  0  0  0  0  0  0  0  0  0
   77.5158    3.2154    1.2619 C   0  0  0  0  0  0  0  0  0  0  0  0
   77.5142    4.5918    1.8046 C   0  0  0  0  0  0  0  0  0  0  0  0
   76.6698    4.9355    2.8631 C   0  0  0  0  0  0  0  0  0  0  0  0
   76.6684    6.2209    3.3741 C   0  0  0  0  0  0  0  0  0  0  0  0
   77.5116    7.1932    2.8280 C   0  0  0  0  0  0  0  0  0  0  0  0
   77.5097    8.5181    3.3490 C   0  0  0  0  0  0  0  0  0  0  0  0
   77.5076    9.5889    3.7701 N   0  0  0  0  0  0  0  0  0  0  0  0
   78.3566    6.8549    1.7668 C   0  0  0  0  0  0  0  0  0  0  0  0
   78.3580    5.5658    1.2653 C   0  0  0  0  0  0  0  0  0  0  0  0
   76.3354    2.6878    0.7592 C   0  0  0  0  0  0  0  0  0  0  0  0
   75.0988    3.4055    0.6821 C   0  0  0  0  0  0  0  0  0  0  0  0
   74.1455    2.5041    0.3426 C   0  0  0  0  0  0  0  0  0  0  0  0
   74.8059    1.2456    0.1989 C   0  0  0  0  0  0  0  0  0  0  0  0
   76.1515    1.3744    0.3923 N   0  0  0  0  0  0  0  0  0  0  0  0
   73.1165   -2.6012   -0.1845 H   0  0  0  0  0  0  0  0  0  0  0  0
   75.0252   -4.3701   -0.9008 H   0  0  0  0  0  0  0  0  0  0  0  0
   76.0498   -4.0297   -3.3465 H   0  0  0  0  0  0  0  0  0  0  0  0
   76.0499   -6.3109   -4.2894 H   0  0  0  0  0  0  0  0  0  0  0  0
   79.0506   -7.4777   -1.4514 H   0  0  0  0  0  0  0  0  0  0  0  0
   79.0391   -5.1975   -0.5066 H   0  0  0  0  0  0  0  0  0  0  0  0
   80.0666   -3.7054   -2.4586 H   0  0  0  0  0  0  0  0  0  0  0  0
   81.9638   -1.9468   -1.6887 H   0  0  0  0  0  0  0  0  0  0  0  0
   81.9398    2.0849    1.7138 H   0  0  0  0  0  0  0  0  0  0  0  0
   80.0318    3.8543    2.4314 H   0  0  0  0  0  0  0  0  0  0  0  0
   76.0239    4.1810    3.2976 H   0  0  0  0  0  0  0  0  0  0  0  0
   76.0154    6.4785    4.1996 H   0  0  0  0  0  0  0  0  0  0  0  0
   79.0089    7.6070    1.3388 H   0  0  0  0  0  0  0  0  0  0  0  0
   79.0058    5.3103    0.4344 H   0  0  0  0  0  0  0  0  0  0  0  0
   74.9850    4.4610    0.8678 H   0  0  0  0  0  0  0  0  0  0  0  0
   73.0879    2.6600    0.2037 H   0  0  0  0  0  0  0  0  0  0  0  0
  2  3  4  0  0  0  0
  3  4  1  0  0  0  0
  4  5  2  0  0  0  0
  5  6  4  0  0  0  0
  1  7  1  0  0  0  0
  3  7  4  0  0  0  0
  6  7  4  0  0  0  0
  6  8  4  0  0  0  0
  8  9  1  0  0  0  0
  9 10  4  0  0  0  0
 10 11  4  0  0  0  0
 11 12  4  0  0  0  0
 12 13  1  0  0  0  0
 13 14  3  0  0  0  0
 12 15  4  0  0  0  0
  9 16  4  0  0  0  0
 15 16  4  0  0  0  0
  8 17  4  0  0  0  0
 17 18  4  0  0  0  0
 18 19  2  0  0  0  0
  1 20  1  0  0  0  0
 17 20  4  0  0  0  0
 19 21  4  0  0  0  0
 20 21  4  0  0  0  0
 21 22  4  0  0  0  0
 22 23  4  0  0  0  0
 23 24  4  0  0  0  0
 24 25  2  0  0  0  0
 25 26  4  0  0  0  0
  1 27  1  0  0  0  0
 23 27  4  0  0  0  0
 26 27  4  0  0  0  0
 26 28  4  0  0  0  0
 28 29  1  0  0  0  0
 29 30  4  0  0  0  0
 30 31  4  0  0  0  0
 31 32  4  0  0  0  0
 32 33  1  0  0  0  0
 33 34  3  0  0  0  0
 32 35  4  0  0  0  0
 29 36  4  0  0  0  0
 35 36  4  0  0  0  0
 28 37  4  0  0  0  0
 37 38  4  0  0  0  0
 38 39  2  0  0  0  0
  2 40  4  0  0  0  0
 39 40  1  0  0  0  0
  1 41  1  0  0  0  0
 37 41  4  0  0  0  0
 40 41  4  0  0  0  0
  2 42  1  0  0  0  0
  4 43  1  0  0  0  0
  5 44  1  0  0  0  0
 10 45  1  0  0  0  0
 11 46  1  0  0  0  0
 15 47  1  0  0  0  0
 16 48  1  0  0  0  0
 18 49  1  0  0  0  0
 19 50  1  0  0  0  0
 24 51  1  0  0  0  0
 25 52  1  0  0  0  0
 30 53  1  0  0  0  0
 31 54  1  0  0  0  0
 35 55  1  0  0  0  0
 36 56  1  0  0  0  0
 38 57  1  0  0  0  0
 39 58  1  0  0  0  0
 60 61  4  0  0  0  0
 61 62  1  0  0  0  0
 62 63  2  0  0  0  0
 63 64  4  0  0  0  0
 59 65  1  0  0  0  0
 61 65  4  0  0  0  0
 64 65  4  0  0  0  0
 64 66  4  0  0  0  0
 66 67  1  0  0  0  0
 67 68  4  0  0  0  0
 68 69  4  0  0  0  0
 69 70  4  0  0  0  0
 70 71  1  0  0  0  0
 71 72  3  0  0  0  0
 70 73  4  0  0  0  0
 67 74  4  0  0  0  0
 73 74  4  0  0  0  0
 66 75  4  0  0  0  0
 75 76  4  0  0  0  0
 76 77  2  0  0  0  0
 59 78  1  0  0  0  0
 75 78  4  0  0  0  0
 77 79  4  0  0  0  0
 78 79  4  0  0  0  0
 79 80  4  0  0  0  0
 80 81  4  0  0  0  0
 81 82  4  0  0  0  0
 82 83  2  0  0  0  0
 83 84  4  0  0  0  0
 59 85  1  0  0  0  0
 81 85  4  0  0  0  0
 84 85  4  0  0  0  0
 84 86  4  0  0  0  0
 86 87  1  0  0  0  0
 87 88  4  0  0  0  0
 88 89  4  0  0  0  0
 89 90  4  0  0  0  0
 90 91  1  0  0  0  0
 91 92  3  0  0  0  0
 90 93  4  0  0  0  0
 87 94  4  0  0  0  0
 93 94  4  0  0  0  0
 86 95  4  0  0  0  0
 95 96  4  0  0  0  0
 96 97  2  0  0  0  0
 60 98  4  0  0  0  0
 97 98  1  0  0  0  0
 59 99  1  0  0  0  0
 95 99  4  0  0  0  0
 98 99  4  0  0  0  0
 60100  1  0  0  0  0
 62101  1  0  0  0  0
 63102  1  0  0  0  0
 68103  1  0  0  0  0
 69104  1  0  0  0  0
 73105  1  0  0  0  0
 74106  1  0  0  0  0
 76107  1  0  0  0  0
 77108  1  0  0  0  0
 82109  1  0  0  0  0
 83110  1  0  0  0  0
 88111  1  0  0  0  0
 89112  1  0  0  0  0
 93113  1  0  0  0  0
 94114  1  0  0  0  0
 96115  1  0  0  0  0
 97116  1  0  0  0  0
 22118  4  0  0  0  0
117118  3  0  0  0  0
117119  4  0  0  0  0
119120  3  0  0  0  0
121122  3  0  0  0  0
121123  4  0  0  0  0
123124  3  0  0  0  0
125126  3  0  0  0  0
125127  4  0  0  0  0
 80128  1  0  0  0  0
127128  3  0  0  0  0
120130  4  0  0  0  0
130131  4  0  0  0  0
131132  4  0  0  0  0
132133  2  0  0  0  0
133134  4  0  0  0  0
129135  1  0  0  0  0
131135  4  0  0  0  0
134135  4  0  0  0  0
134136  4  0  0  0  0
136137  1  0  0  0  0
137138  4  0  0  0  0
138139  4  0  0  0  0
139140  4  0  0  0  0
140141  1  0  0  0  0
141142  3  0  0  0  0
140143  4  0  0  0  0
137144  4  0  0  0  0
143144  4  0  0  0  0
136145  4  0  0  0  0
145146  4  0  0  0  0
146147  2  0  0  0  0
129148  1  0  0  0  0
145148  4  0  0  0  0
147149  4  0  0  0  0
148149  4  0  0  0  0
122150  4  0  0  0  0
149150  4  0  0  0  0
150151  4  0  0  0  0
151152  4  0  0  0  0
152153  2  0  0  0  0
153154  4  0  0  0  0
129155  1  0  0  0  0
151155  4  0  0  0  0
154155  4  0  0  0  0
154156  4  0  0  0  0
156157  1  0  0  0  0
157158  4  0  0  0  0
158159  4  0  0  0  0
159160  4  0  0  0  0
160161  1  0  0  0  0
161162  3  0  0  0  0
160163  4  0  0  0  0
157164  4  0  0  0  0
163164  4  0  0  0  0
156165  4  0  0  0  0
165166  4  0  0  0  0
166167  2  0  0  0  0
130168  4  0  0  0  0
167168  4  0  0  0  0
129169  1  0  0  0  0
165169  4  0  0  0  0
168169  4  0  0  0  0
132170  1  0  0  0  0
133171  1  0  0  0  0
138172  1  0  0  0  0
139173  1  0  0  0  0
143174  1  0  0  0  0
144175  1  0  0  0  0
146176  1  0  0  0  0
147177  1  0  0  0  0
152178  1  0  0  0  0
153179  1  0  0  0  0
158180  1  0  0  0  0
159181  1  0  0  0  0
163182  1  0  0  0  0
164183  1  0  0  0  0
166184  1  0  0  0  0
167185  1  0  0  0  0
124187  4  0  0  0  0
187188  4  0  0  0  0
188189  4  0  0  0  0
189190  2  0  0  0  0
190191  4  0  0  0  0
186192  1  0  0  0  0
188192  4  0  0  0  0
191192  4  0  0  0  0
191193  4  0  0  0  0
193194  1  0  0  0  0
194195  4  0  0  0  0
195196  4  0  0  0  0
196197  4  0  0  0  0
197198  1  0  0  0  0
198199  3  0  0  0  0
197200  4  0  0  0  0
194201  4  0  0  0  0
200201  4  0  0  0  0
193202  4  0  0  0  0
202203  4  0  0  0  0
203204  2  0  0  0  0
186205  1  0  0  0  0
202205  4  0  0  0  0
204206  4  0  0  0  0
205206  4  0  0  0  0
126207  1  0  0  0  0
206207  4  0  0  0  0
207208  4  0  0  0  0
208209  4  0  0  0  0
209210  2  0  0  0  0
210211  4  0  0  0  0
186212  1  0  0  0  0
208212  4  0  0  0  0
211212  4  0  0  0  0
211213  4  0  0  0  0
213214  1  0  0  0  0
214215  4  0  0  0  0
215216  4  0  0  0  0
216217  4  0  0  0  0
217218  1  0  0  0  0
218219  3  0  0  0  0
217220  4  0  0  0  0
214221  4  0  0  0  0
220221  4  0  0  0  0
213222  4  0  0  0  0
222223  4  0  0  0  0
223224  2  0  0  0  0
187225  4  0  0  0  0
224225  4  0  0  0  0
186226  1  0  0  0  0
222226  4  0  0  0  0
225226  4  0  0  0  0
189227  1  0  0  0  0
190228  1  0  0  0  0
195229  1  0  0  0  0
196230  1  0  0  0  0
200231  1  0  0  0  0
201232  1  0  0  0  0
203233  1  0  0  0  0
204234  1  0  0  0  0
209235  1  0  0  0  0
210236  1  0  0  0  0
215237  1  0  0  0  0
216238  1  0  0  0  0
220239  1  0  0  0  0
221240  1  0  0  0  0
223241  1  0  0  0  0
224242  1  0  0  0  0
M  END
