
  xtb     07262211223D
 xtb: 6.4.1 (bd6e46d)
 77 88  0     0  0            999 V2000
   -0.0887    0.1707    0.0135 Zn  0  0  0  0  0  0  0  0  0  0  0  0
   -3.4812    0.6382    0.0823 C   0  0  0  0  0  0  0  0  0  0  0  0
   -4.9457    0.8385    0.1185 C   0  0  0  0  0  0  0  0  0  0  0  0
   -5.5894    1.5366   -0.8989 C   0  0  0  0  0  0  0  0  0  0  0  0
   -6.9597    1.7205   -0.8642 C   0  0  0  0  0  0  0  0  0  0  0  0
   -7.7036    1.2158    0.1893 C   0  0  0  0  0  0  0  0  0  0  0  0
   -7.0705    0.5224    1.2073 C   0  0  0  0  0  0  0  0  0  0  0  0
   -5.7013    0.3314    1.1716 C   0  0  0  0  0  0  0  0  0  0  0  0
   -3.0083   -0.6715    0.0107 C   0  0  0  0  0  0  0  0  0  0  0  0
   -3.8500   -1.8279   -0.1185 C   0  0  0  0  0  0  0  0  0  0  0  0
   -3.0326   -2.9066   -0.1379 C   0  0  0  0  0  0  0  0  0  0  0  0
   -1.6896   -2.4120   -0.0182 C   0  0  0  0  0  0  0  0  0  0  0  0
   -0.5557   -3.2223    0.0270 C   0  0  0  0  0  0  0  0  0  0  0  0
   -0.7572   -4.6870    0.0295 C   0  0  0  0  0  0  0  0  0  0  0  0
   -0.2546   -5.4711   -1.0048 C   0  0  0  0  0  0  0  0  0  0  0  0
   -0.4471   -6.8406   -1.0032 C   0  0  0  0  0  0  0  0  0  0  0  0
   -1.1381   -7.4455    0.0334 C   0  0  0  0  0  0  0  0  0  0  0  0
   -1.6386   -6.6732    1.0684 C   0  0  0  0  0  0  0  0  0  0  0  0
   -1.4525   -5.3028    1.0661 C   0  0  0  0  0  0  0  0  0  0  0  0
    0.7549   -2.7483    0.0740 C   0  0  0  0  0  0  0  0  0  0  0  0
    1.9129   -3.5866    0.2107 C   0  0  0  0  0  0  0  0  0  0  0  0
    2.9915   -2.7687    0.2005 C   0  0  0  0  0  0  0  0  0  0  0  0
    2.4951   -1.4290    0.0552 C   0  0  0  0  0  0  0  0  0  0  0  0
    1.1353   -1.4438    0.0056 N   0  0  0  0  0  0  0  0  0  0  0  0
    3.3039   -0.2958   -0.0228 C   0  0  0  0  0  0  0  0  0  0  0  0
    4.7689   -0.4950   -0.0315 C   0  0  0  0  0  0  0  0  0  0  0  0
    5.3795   -1.2124   -1.0560 C   0  0  0  0  0  0  0  0  0  0  0  0
    6.7505   -1.3941   -1.0638 C   0  0  0  0  0  0  0  0  0  0  0  0
    7.5286   -0.8673   -0.0464 C   0  0  0  0  0  0  0  0  0  0  0  0
    6.9288   -0.1545    0.9784 C   0  0  0  0  0  0  0  0  0  0  0  0
    5.5588    0.0337    0.9853 C   0  0  0  0  0  0  0  0  0  0  0  0
    2.8285    1.0132   -0.0959 C   0  0  0  0  0  0  0  0  0  0  0  0
    3.6651    2.1674   -0.2697 C   0  0  0  0  0  0  0  0  0  0  0  0
    2.8471    3.2458   -0.2779 C   0  0  0  0  0  0  0  0  0  0  0  0
    1.5246    1.3951   -0.0230 N   0  0  0  0  0  0  0  0  0  0  0  0
    1.5090    2.7534   -0.1058 C   0  0  0  0  0  0  0  0  0  0  0  0
    0.3769    3.5644   -0.0356 C   0  0  0  0  0  0  0  0  0  0  0  0
    0.5756    5.0290   -0.0702 C   0  0  0  0  0  0  0  0  0  0  0  0
    1.3082    5.6691    0.9251 C   0  0  0  0  0  0  0  0  0  0  0  0
    1.4906    7.0396    0.8893 C   0  0  0  0  0  0  0  0  0  0  0  0
    0.9491    7.7876   -0.1427 C   0  0  0  0  0  0  0  0  0  0  0  0
    0.2203    7.1585   -1.1382 C   0  0  0  0  0  0  0  0  0  0  0  0
    0.0316    5.7890   -1.1017 C   0  0  0  0  0  0  0  0  0  0  0  0
   -0.9312    3.0910    0.0636 C   0  0  0  0  0  0  0  0  0  0  0  0
   -2.0842    3.9312    0.2278 C   0  0  0  0  0  0  0  0  0  0  0  0
   -3.1622    3.1134    0.2642 C   0  0  0  0  0  0  0  0  0  0  0  0
   -2.6704    1.7719    0.1201 C   0  0  0  0  0  0  0  0  0  0  0  0
   -1.3131    1.7858    0.0255 N   0  0  0  0  0  0  0  0  0  0  0  0
   -1.7026   -1.0527    0.0452 N   0  0  0  0  0  0  0  0  0  0  0  0
   -5.0083    1.9240   -1.7233 H   0  0  0  0  0  0  0  0  0  0  0  0
   -7.4493    2.2595   -1.6623 H   0  0  0  0  0  0  0  0  0  0  0  0
   -8.7733    1.3623    0.2168 H   0  0  0  0  0  0  0  0  0  0  0  0
   -7.6460    0.1290    2.0327 H   0  0  0  0  0  0  0  0  0  0  0  0
   -5.2048   -0.2040    1.9679 H   0  0  0  0  0  0  0  0  0  0  0  0
   -4.9191   -1.8077   -0.2022 H   0  0  0  0  0  0  0  0  0  0  0  0
   -3.3043   -3.9390   -0.2410 H   0  0  0  0  0  0  0  0  0  0  0  0
    0.2781   -4.9967   -1.8163 H   0  0  0  0  0  0  0  0  0  0  0  0
   -0.0570   -7.4384   -1.8142 H   0  0  0  0  0  0  0  0  0  0  0  0
   -1.2861   -8.5153    0.0348 H   0  0  0  0  0  0  0  0  0  0  0  0
   -2.1757   -7.1406    1.8809 H   0  0  0  0  0  0  0  0  0  0  0  0
   -1.8360   -4.6997    1.8763 H   0  0  0  0  0  0  0  0  0  0  0  0
    1.8944   -4.6534    0.3192 H   0  0  0  0  0  0  0  0  0  0  0  0
    4.0249   -3.0379    0.2991 H   0  0  0  0  0  0  0  0  0  0  0  0
    4.7719   -1.6163   -1.8529 H   0  0  0  0  0  0  0  0  0  0  0  0
    7.2139   -1.9484   -1.8670 H   0  0  0  0  0  0  0  0  0  0  0  0
    8.5989   -1.0117   -0.0522 H   0  0  0  0  0  0  0  0  0  0  0  0
    7.5311    0.2563    1.7757 H   0  0  0  0  0  0  0  0  0  0  0  0
    5.0885    0.5839    1.7875 H   0  0  0  0  0  0  0  0  0  0  0  0
    4.7307    2.1462   -0.3890 H   0  0  0  0  0  0  0  0  0  0  0  0
    3.1151    4.2765   -0.4055 H   0  0  0  0  0  0  0  0  0  0  0  0
    1.7237    5.0852    1.7336 H   0  0  0  0  0  0  0  0  0  0  0  0
    2.0573    7.5261    1.6699 H   0  0  0  0  0  0  0  0  0  0  0  0
    1.0944    8.8574   -0.1711 H   0  0  0  0  0  0  0  0  0  0  0  0
   -0.2024    7.7371   -1.9467 H   0  0  0  0  0  0  0  0  0  0  0  0
   -0.5307    5.2955   -1.8812 H   0  0  0  0  0  0  0  0  0  0  0  0
   -2.0624    4.9993    0.3222 H   0  0  0  0  0  0  0  0  0  0  0  0
   -4.1920    3.3837    0.3934 H   0  0  0  0  0  0  0  0  0  0  0  0
  2  3  1  0  0  0  0
  3  4  4  0  0  0  0
  4  5  4  0  0  0  0
  5  6  4  0  0  0  0
  6  7  4  0  0  0  0
  3  8  4  0  0  0  0
  7  8  4  0  0  0  0
  2  9  4  0  0  0  0
  9 10  4  0  0  0  0
 10 11  2  0  0  0  0
 11 12  4  0  0  0  0
 12 13  4  0  0  0  0
 13 14  1  0  0  0  0
 14 15  4  0  0  0  0
 15 16  4  0  0  0  0
 16 17  4  0  0  0  0
 17 18  4  0  0  0  0
 14 19  4  0  0  0  0
 18 19  4  0  0  0  0
 13 20  4  0  0  0  0
 20 21  4  0  0  0  0
 21 22  2  0  0  0  0
 22 23  4  0  0  0  0
  1 24  1  0  0  0  0
 20 24  4  0  0  0  0
 23 24  4  0  0  0  0
 23 25  4  0  0  0  0
 25 26  1  0  0  0  0
 26 27  4  0  0  0  0
 27 28  4  0  0  0  0
 28 29  4  0  0  0  0
 29 30  4  0  0  0  0
 26 31  4  0  0  0  0
 30 31  4  0  0  0  0
 25 32  4  0  0  0  0
 32 33  4  0  0  0  0
 33 34  2  0  0  0  0
  1 35  1  0  0  0  0
 32 35  4  0  0  0  0
 34 36  4  0  0  0  0
 35 36  4  0  0  0  0
 36 37  4  0  0  0  0
 37 38  1  0  0  0  0
 38 39  4  0  0  0  0
 39 40  4  0  0  0  0
 40 41  4  0  0  0  0
 41 42  4  0  0  0  0
 38 43  4  0  0  0  0
 42 43  4  0  0  0  0
 37 44  4  0  0  0  0
 44 45  4  0  0  0  0
 45 46  2  0  0  0  0
  2 47  4  0  0  0  0
 46 47  4  0  0  0  0
  1 48  1  0  0  0  0
 44 48  4  0  0  0  0
 47 48  4  0  0  0  0
  1 49  1  0  0  0  0
  9 49  4  0  0  0  0
 12 49  4  0  0  0  0
  4 50  1  0  0  0  0
  5 51  1  0  0  0  0
  6 52  1  0  0  0  0
  7 53  1  0  0  0  0
  8 54  1  0  0  0  0
 10 55  1  0  0  0  0
 11 56  1  0  0  0  0
 15 57  1  0  0  0  0
 16 58  1  0  0  0  0
 17 59  1  0  0  0  0
 18 60  1  0  0  0  0
 19 61  1  0  0  0  0
 21 62  1  0  0  0  0
 22 63  1  0  0  0  0
 27 64  1  0  0  0  0
 28 65  1  0  0  0  0
 29 66  1  0  0  0  0
 30 67  1  0  0  0  0
 31 68  1  0  0  0  0
 33 69  1  0  0  0  0
 34 70  1  0  0  0  0
 39 71  1  0  0  0  0
 40 72  1  0  0  0  0
 41 73  1  0  0  0  0
 42 74  1  0  0  0  0
 43 75  1  0  0  0  0
 45 76  1  0  0  0  0
 46 77  1  0  0  0  0
M  END
