324

C 43.171301 -0.028659 0.076906
C 43.905177 1.194400 0.708068
C 43.311107 2.214904 1.415089
C 44.336192 3.136526 1.754373
C 45.520610 2.651680 1.233458
N 45.253399 1.439129 0.648292
C 46.940752 3.356604 1.271153
C 46.932486 4.791233 1.591722
C 46.622908 5.683179 0.626111
C 46.553977 7.164127 0.832194
N 47.000774 7.553339 2.167806
C 47.239424 6.623392 3.152983
C 47.233277 5.304891 2.922598
C 48.066752 2.657208 0.967640
C 49.366170 3.294989 0.938197
C 50.269007 2.388332 0.582490
N 48.264613 1.344593 0.628188
C 49.593630 1.121139 0.376511
C 50.259945 -0.002575 -0.000315
C 49.482106 -1.372424 -0.197335
C 50.021957 -2.639886 -0.097969
C 48.995941 -3.567209 -0.408248
C 47.854605 -2.841431 -0.678354
N 48.147403 -1.510115 -0.492548
C 46.441383 -3.424193 -1.102374
C 46.451265 -4.758542 -1.715653
C 46.059722 -5.829661 -0.991036
C 45.989120 -7.228827 -1.518635
N 46.546821 -7.338679 -2.865818
C 46.850776 -6.220540 -3.610428
C 46.832671 -4.981557 -3.104315
C 45.320018 -2.682153 -0.906155
C 43.999664 -3.146222 -1.293358
C 43.113496 -2.213021 -0.957272
C 43.834288 -1.117348 -0.356329
N 45.155374 -1.440107 -0.359154
H 42.094117 0.022308 -0.024797
H 42.260656 2.294289 1.648253
H 44.219916 4.062623 2.296740
H 45.948302 0.816785 0.243369
H 46.395687 5.314030 -0.370460
H 45.522259 7.502219 0.684156
H 47.182529 7.668244 0.090732
H 46.698591 8.464007 2.488918
H 47.445367 7.028777 4.137378
H 47.440855 4.578294 3.700898
H 49.569397 4.328786 1.155719
H 51.320412 2.583360 0.474493
H 51.044732 -2.875149 0.155597
H 49.080837 -4.643280 -0.439486
H 47.464575 -0.757354 -0.516367
H 45.751015 -5.674933 0.040255
H 44.944143 -7.557507 -1.531262
H 46.544656 -7.899404 -0.854936
H 46.221957 -8.131642 -3.404410
H 47.113303 -6.407862 -4.645842
H 47.083649 -4.108756 -3.698127
H 43.775955 -4.080877 -1.774712
H 42.050796 -2.255409 -1.113201
C 125.950418 -0.021114 0.079056
C 125.216542 -1.393157 -0.029275
C 125.810612 -2.633056 0.033626
C 124.785527 -3.595087 -0.163851
C 123.601109 -2.908487 -0.350953
N 123.868320 -1.569618 -0.209072
C 122.180967 -3.527397 -0.690494
C 122.189233 -4.915514 -1.174288
C 122.498811 -5.164500 -2.465016
C 122.567742 -6.531631 -3.070514
N 122.120945 -7.566400 -2.140677
C 121.882295 -7.295435 -0.813291
C 121.888442 -6.053540 -0.314071
C 121.054967 -2.773068 -0.579757
C 119.755549 -3.299531 -0.940960
C 118.852712 -2.341561 -0.765329
N 120.857106 -1.478684 -0.176326
C 119.528089 -1.156132 -0.272414
C 118.861774 -0.002575 -0.000315
C 119.639613 1.265367 0.554324
C 119.099762 2.290074 1.306860
C 120.125778 3.241660 1.531990
C 121.267114 2.767274 0.919888
N 120.974316 1.537987 0.376031
C 122.680335 3.486009 0.866739
C 122.670454 4.943200 1.048931
C 123.061997 5.471476 2.229307
C 123.132599 6.938585 2.518475
N 122.574898 7.742054 1.431550
C 122.270943 7.184359 0.209398
C 122.289048 5.864698 -0.013593
C 123.801701 2.751997 0.642347
C 125.122055 3.350460 0.557920
C 126.008223 2.380275 0.351623
C 125.287430 1.132413 0.284757
N 123.966345 1.408181 0.452487
H 127.027602 -0.010817 -0.034236
H 126.861063 -2.823422 0.189924
H 124.901803 -4.667969 -0.191107
H 123.173417 -0.827313 -0.225129
H 122.726032 -4.325493 -3.117314
H 123.599460 -6.740907 -3.374529
H 121.939189 -6.569193 -3.966332
H 122.423128 -8.509543 -2.347822
H 121.676352 -8.158816 -0.190440
H 121.680864 -5.846333 0.730322
H 119.552322 -4.292705 -1.301039
H 117.801307 -2.450368 -0.959906
H 118.076986 2.356341 1.646349
H 120.040882 4.172566 2.072655
H 121.657144 0.910850 -0.040999
H 123.370703 4.796382 3.024134
H 124.177576 7.224552 2.680996
H 122.577063 7.158594 3.435952
H 122.899762 8.699810 1.391838
H 122.008416 7.889324 -0.571752
H 122.038070 5.436002 -0.978277
H 125.345763 4.398453 0.641536
H 127.070923 2.498489 0.241458
C 52.770420 0.011083 0.009238
C 54.228647 -0.010754 -0.008635
C 55.362575 -0.031507 -0.010126
C 56.723957 -0.044097 -0.012317
C 57.998175 -0.033791 -0.017082
C 59.186638 -0.014993 -0.023238
C 60.538999 0.009792 -0.007370
C 61.639266 0.011083 0.009238
C 70.969324 0.011083 0.009238
C 72.427551 -0.010754 -0.008635
C 73.561479 -0.031507 -0.010126
C 74.922861 -0.044097 -0.012317
C 76.197079 -0.033791 -0.017082
C 77.385542 -0.014993 -0.023238
C 78.737903 0.009792 -0.007370
C 79.838170 0.011083 0.009238
C 89.168228 0.011083 0.009238
C 90.626455 -0.010754 -0.008635
C 91.760383 -0.031507 -0.010126
C 93.121765 -0.044097 -0.012317
C 94.395983 -0.033791 -0.017082
C 95.584446 -0.014993 -0.023238
C 96.936807 0.009792 -0.007370
C 98.037074 0.011083 0.009238
C 107.367133 0.011083 0.009238
C 108.825359 -0.010754 -0.008635
C 109.959287 -0.031507 -0.010126
C 111.320669 -0.044097 -0.012317
C 112.594887 -0.033791 -0.017082
C 113.783350 -0.014993 -0.023238
C 115.135711 0.009792 -0.007370
C 116.235978 0.011083 0.009238
C 62.750632 -0.000292 -0.001485
C 63.526324 -0.147858 1.377612
C 62.953147 -0.128643 2.633472
C 63.993646 -0.268439 3.579616
C 65.179663 -0.367319 2.881171
N 64.886497 -0.287671 1.539607
C 66.619265 -0.514742 3.526670
C 66.642874 -0.764754 4.977194
C 66.581958 -2.036067 5.428686
C 66.641219 -2.423710 6.873403
N 66.604256 -1.258927 7.757182
C 66.775600 0.017558 7.270312
C 66.788092 0.300754 5.962187
C 67.745178 -0.405980 2.773600
C 69.057283 -0.485022 3.381564
C 69.969203 -0.324355 2.431607
N 67.941968 -0.214616 1.431799
C 69.286803 -0.160509 1.163168
C 69.969665 -0.000292 -0.001485
C 69.192613 0.105002 -1.382317
C 69.759085 0.016433 -2.638353
C 68.718654 0.151363 -3.585529
C 67.540194 0.316098 -2.886499
N 67.836081 0.271693 -1.544365
C 66.104217 0.495508 -3.529554
C 66.084991 0.763896 -4.976614
C 66.189221 2.037451 -5.413666
C 66.137944 2.443520 -6.853524
N 66.133107 1.288508 -7.751117
C 65.917183 0.013445 -7.278117
C 65.898402 -0.284161 -5.973342
C 64.977707 0.399021 -2.775710
C 63.666575 0.514709 -3.379412
C 62.753619 0.360336 -2.429637
C 63.434848 0.162956 -1.165067
N 64.779762 0.193084 -1.436061
H 61.903121 -0.017006 2.855382
H 63.889336 -0.284693 4.654465
H 65.571226 -0.288141 0.787127
H 66.500715 -2.842513 4.704714
H 67.560519 -2.989801 7.058415
H 65.792890 -3.072213 7.114923
H 66.969517 -1.412471 8.688802
H 66.897419 0.790227 8.021604
H 66.917956 1.310543 5.587562
H 69.267333 -0.635529 4.425502
H 71.030447 -0.333557 2.599469
H 70.804606 -0.134976 -2.858323
H 68.817620 0.124993 -4.660943
H 67.154073 0.309171 -0.790556
H 66.301435 2.832254 -4.680980
H 65.236853 3.041353 -7.028489
H 67.006100 3.066940 -7.090930
H 65.768087 1.465757 -8.678550
H 65.763873 -0.745305 -8.037559
H 65.731696 -1.292517 -5.609833
H 63.457789 0.685172 -4.420556
H 61.692548 0.394871 -2.595250
C 80.949536 -0.000292 -0.001485
C 81.725228 -0.147858 1.377612
C 81.152051 -0.128643 2.633472
C 82.192550 -0.268439 3.579616
C 83.378567 -0.367319 2.881171
N 83.085401 -0.287671 1.539607
C 84.818169 -0.514742 3.526670
C 84.841778 -0.764754 4.977194
C 84.780862 -2.036067 5.428686
C 84.840123 -2.423710 6.873403
N 84.803160 -1.258927 7.757182
C 84.974504 0.017558 7.270312
C 84.986996 0.300754 5.962187
C 85.944082 -0.405980 2.773600
C 87.256187 -0.485022 3.381564
C 88.168107 -0.324355 2.431607
N 86.140872 -0.214616 1.431799
C 87.485707 -0.160509 1.163168
C 88.168569 -0.000292 -0.001485
C 87.391517 0.105002 -1.382317
C 87.957989 0.016433 -2.638353
C 86.917558 0.151363 -3.585529
C 85.739098 0.316098 -2.886499
N 86.034985 0.271693 -1.544365
C 84.303121 0.495508 -3.529554
C 84.283895 0.763896 -4.976614
C 84.388125 2.037451 -5.413666
C 84.336848 2.443520 -6.853524
N 84.332011 1.288508 -7.751117
C 84.116087 0.013445 -7.278117
C 84.097306 -0.284161 -5.973342
C 83.176611 0.399021 -2.775710
C 81.865479 0.514709 -3.379412
C 80.952523 0.360336 -2.429637
C 81.633752 0.162956 -1.165067
N 82.978666 0.193084 -1.436061
H 80.102025 -0.017006 2.855382
H 82.088240 -0.284693 4.654465
H 83.770130 -0.288141 0.787127
H 84.699619 -2.842513 4.704714
H 85.759423 -2.989801 7.058415
H 83.991794 -3.072213 7.114923
H 85.168421 -1.412471 8.688802
H 85.096323 0.790227 8.021604
H 85.116860 1.310543 5.587562
H 87.466237 -0.635529 4.425502
H 89.229351 -0.333557 2.599469
H 89.003510 -0.134976 -2.858323
H 87.016524 0.124993 -4.660943
H 85.352977 0.309171 -0.790556
H 84.500339 2.832254 -4.680980
H 83.435757 3.041353 -7.028489
H 85.205004 3.066940 -7.090930
H 83.966991 1.465757 -8.678550
H 83.962777 -0.745305 -8.037559
H 83.930600 -1.292517 -5.609833
H 81.656693 0.685172 -4.420556
H 79.891452 0.394871 -2.595250
C 99.148440 -0.000292 -0.001485
C 99.924132 -0.147858 1.377612
C 99.350955 -0.128643 2.633472
C 100.391454 -0.268439 3.579616
C 101.577471 -0.367319 2.881171
N 101.284305 -0.287671 1.539607
C 103.017073 -0.514742 3.526670
C 103.040682 -0.764754 4.977194
C 102.979766 -2.036067 5.428686
C 103.039027 -2.423710 6.873403
N 103.002064 -1.258927 7.757182
C 103.173408 0.017558 7.270312
C 103.185900 0.300754 5.962187
C 104.142986 -0.405980 2.773600
C 105.455091 -0.485022 3.381564
C 106.367011 -0.324355 2.431607
N 104.339776 -0.214616 1.431799
C 105.684611 -0.160509 1.163168
C 106.367473 -0.000292 -0.001485
C 105.590421 0.105002 -1.382317
C 106.156893 0.016433 -2.638353
C 105.116462 0.151363 -3.585529
C 103.938002 0.316098 -2.886499
N 104.233889 0.271693 -1.544365
C 102.502025 0.495508 -3.529554
C 102.482799 0.763896 -4.976614
C 102.587029 2.037451 -5.413666
C 102.535752 2.443520 -6.853524
N 102.530915 1.288508 -7.751117
C 102.314991 0.013445 -7.278117
C 102.296210 -0.284161 -5.973342
C 101.375515 0.399021 -2.775710
C 100.064383 0.514709 -3.379412
C 99.151427 0.360336 -2.429637
C 99.832656 0.162956 -1.165067
N 101.177570 0.193084 -1.436061
H 98.300929 -0.017006 2.855382
H 100.287144 -0.284693 4.654465
H 101.969034 -0.288141 0.787127
H 102.898523 -2.842513 4.704714
H 103.958327 -2.989801 7.058415
H 102.190698 -3.072213 7.114923
H 103.367325 -1.412471 8.688802
H 103.295227 0.790227 8.021604
H 103.315764 1.310543 5.587562
H 105.665141 -0.635529 4.425502
H 107.428256 -0.333557 2.599469
H 107.202414 -0.134976 -2.858323
H 105.215428 0.124993 -4.660943
H 103.551881 0.309171 -0.790556
H 102.699243 2.832254 -4.680980
H 101.634661 3.041353 -7.028489
H 103.403908 3.066940 -7.090930
H 102.165895 1.465757 -8.678550
H 102.161681 -0.745305 -8.037559
H 102.129504 -1.292517 -5.609833
H 99.855597 0.685172 -4.420556
H 98.090356 0.394871 -2.595250
