 xtb: 6.5.1 (b24c23e)
          07302205153D

219248  0     0  0            999 V2000
   25.8592    0.0682   -0.2004 Ni  0  0  0  0  0  0  0  0  0  0  0  0
   22.5105    0.2597   -0.7082 C   0  0  0  0  0  0  0  0  0  0  0  0
   23.1516    1.3702   -0.1993 C   0  0  0  0  0  0  0  0  0  0  0  0
   22.4710    2.5725    0.1730 C   0  0  0  0  0  0  0  0  0  0  0  0
   23.4144    3.4245    0.6383 C   0  0  0  0  0  0  0  0  0  0  0  0
   24.6754    2.7531    0.5189 C   0  0  0  0  0  0  0  0  0  0  0  0
   24.4993    1.4808    0.0333 N   0  0  0  0  0  0  0  0  0  0  0  0
   25.8985    3.3465    0.8018 C   0  0  0  0  0  0  0  0  0  0  0  0
   27.1083    2.6884    0.6262 C   0  0  0  0  0  0  0  0  0  0  0  0
   28.3827    3.3227    0.7761 C   0  0  0  0  0  0  0  0  0  0  0  0
   29.3216    2.3825    0.5126 C   0  0  0  0  0  0  0  0  0  0  0  0
   27.2667    1.3705    0.2612 N   0  0  0  0  0  0  0  0  0  0  0  0
   28.6195    1.1750    0.2150 C   0  0  0  0  0  0  0  0  0  0  0  0
   29.2633   -0.0451   -0.0103 C   0  0  0  0  0  0  0  0  0  0  0  0
   28.5657   -1.2379   -0.2218 C   0  0  0  0  0  0  0  0  0  0  0  0
   29.2109   -2.5054   -0.3513 C   0  0  0  0  0  0  0  0  0  0  0  0
   28.2336   -3.4187   -0.5647 C   0  0  0  0  0  0  0  0  0  0  0  0
   26.9939   -2.7029   -0.5778 C   0  0  0  0  0  0  0  0  0  0  0  0
   25.7766   -3.2864   -0.8993 C   0  0  0  0  0  0  0  0  0  0  0  0
   25.7424   -4.7450   -1.1744 C   0  0  0  0  0  0  0  0  0  0  0  0
   25.4622   -5.2116   -2.4567 C   0  0  0  0  0  0  0  0  0  0  0  0
   25.4364   -6.5779   -2.7206 C   0  0  0  0  0  0  0  0  0  0  0  0
   25.1186   -7.0740   -4.1054 C   0  0  0  0  0  0  0  0  0  0  0  0
   25.6877   -7.4756   -1.6888 C   0  0  0  0  0  0  0  0  0  0  0  0
   25.9687   -7.0237   -0.4017 C   0  0  0  0  0  0  0  0  0  0  0  0
   26.2529   -8.0115    0.6974 C   0  0  0  0  0  0  0  0  0  0  0  0
   25.9983   -5.6568   -0.1510 C   0  0  0  0  0  0  0  0  0  0  0  0
   24.6010   -2.5563   -1.0144 C   0  0  0  0  0  0  0  0  0  0  0  0
   23.3431   -3.1240   -1.4025 C   0  0  0  0  0  0  0  0  0  0  0  0
   22.4364   -2.1193   -1.3838 C   0  0  0  0  0  0  0  0  0  0  0  0
   23.1344   -0.9449   -0.9577 C   0  0  0  0  0  0  0  0  0  0  0  0
   24.4630   -1.2172   -0.7466 N   0  0  0  0  0  0  0  0  0  0  0  0
   27.2103   -1.3620   -0.3491 N   0  0  0  0  0  0  0  0  0  0  0  0
   25.9256    4.7549    1.2676 C   0  0  0  0  0  0  0  0  0  0  0  0
   25.4564    5.7796    0.4470 C   0  0  0  0  0  0  0  0  0  0  0  0
   25.4938    7.1014    0.8776 C   0  0  0  0  0  0  0  0  0  0  0  0
   25.0131    8.2087   -0.0210 C   0  0  0  0  0  0  0  0  0  0  0  0
   26.0032    7.3936    2.1395 C   0  0  0  0  0  0  0  0  0  0  0  0
   26.4755    6.3817    2.9698 C   0  0  0  0  0  0  0  0  0  0  0  0
   27.0061    6.7075    4.3397 C   0  0  0  0  0  0  0  0  0  0  0  0
   26.4357    5.0636    2.5276 C   0  0  0  0  0  0  0  0  0  0  0  0
   21.4428    0.3248   -0.8829 H   0  0  0  0  0  0  0  0  0  0  0  0
   21.4056    2.7205    0.0944 H   0  0  0  0  0  0  0  0  0  0  0  0
   23.2821    4.4210    1.0273 H   0  0  0  0  0  0  0  0  0  0  0  0
   28.5287    4.3587    1.0345 H   0  0  0  0  0  0  0  0  0  0  0  0
   30.3951    2.4802    0.5232 H   0  0  0  0  0  0  0  0  0  0  0  0
   30.2757   -2.6599   -0.2844 H   0  0  0  0  0  0  0  0  0  0  0  0
   28.3334   -4.4804   -0.7213 H   0  0  0  0  0  0  0  0  0  0  0  0
   25.2805   -4.5012   -3.2557 H   0  0  0  0  0  0  0  0  0  0  0  0
   25.5447   -8.0634   -4.2720 H   0  0  0  0  0  0  0  0  0  0  0  0
   24.0361   -7.1427   -4.2356 H   0  0  0  0  0  0  0  0  0  0  0  0
   25.5070   -6.3901   -4.8605 H   0  0  0  0  0  0  0  0  0  0  0  0
   25.6669   -8.5421   -1.8881 H   0  0  0  0  0  0  0  0  0  0  0  0
   26.2291   -7.5277    1.6736 H   0  0  0  0  0  0  0  0  0  0  0  0
   25.5196   -8.8190    0.6865 H   0  0  0  0  0  0  0  0  0  0  0  0
   27.2418   -8.4529    0.5557 H   0  0  0  0  0  0  0  0  0  0  0  0
   26.2082   -5.2907    0.8479 H   0  0  0  0  0  0  0  0  0  0  0  0
   23.1863   -4.1613   -1.6500 H   0  0  0  0  0  0  0  0  0  0  0  0
   21.3833   -2.1545   -1.6136 H   0  0  0  0  0  0  0  0  0  0  0  0
   25.0776    5.5411   -0.5409 H   0  0  0  0  0  0  0  0  0  0  0  0
   24.5486    9.0053    0.5607 H   0  0  0  0  0  0  0  0  0  0  0  0
   24.2920    7.8351   -0.7481 H   0  0  0  0  0  0  0  0  0  0  0  0
   25.8573    8.6362   -0.5668 H   0  0  0  0  0  0  0  0  0  0  0  0
   26.0346    8.4239    2.4788 H   0  0  0  0  0  0  0  0  0  0  0  0
   26.1883    6.7085    5.0640 H   0  0  0  0  0  0  0  0  0  0  0  0
   27.4701    7.6940    4.3515 H   0  0  0  0  0  0  0  0  0  0  0  0
   27.7406    5.9675    4.6581 H   0  0  0  0  0  0  0  0  0  0  0  0
   26.7924    4.2646    3.1683 H   0  0  0  0  0  0  0  0  0  0  0  0
   62.9672    0.1365   -0.1136 Ni  0  0  0  0  0  0  0  0  0  0  0  0
   66.3116    0.5790   -0.4692 C   0  0  0  0  0  0  0  0  0  0  0  0
   65.6636   -0.2190   -1.3891 C   0  0  0  0  0  0  0  0  0  0  0  0
   66.3361   -0.9073   -2.4481 C   0  0  0  0  0  0  0  0  0  0  0  0
   65.3881   -1.5925   -3.1292 C   0  0  0  0  0  0  0  0  0  0  0  0
   64.1321   -1.2961   -2.5046 C   0  0  0  0  0  0  0  0  0  0  0  0
   64.3163   -0.4770   -1.4180 N   0  0  0  0  0  0  0  0  0  0  0  0
   62.9062   -1.7386   -2.9839 C   0  0  0  0  0  0  0  0  0  0  0  0
   61.7009   -1.3955   -2.3865 C   0  0  0  0  0  0  0  0  0  0  0  0
   60.4220   -1.7254   -2.9386 C   0  0  0  0  0  0  0  0  0  0  0  0
   59.4895   -1.2130   -2.1003 C   0  0  0  0  0  0  0  0  0  0  0  0
   61.5515   -0.6763   -1.2223 N   0  0  0  0  0  0  0  0  0  0  0  0
   60.2001   -0.5829   -1.0336 C   0  0  0  0  0  0  0  0  0  0  0  0
   59.5656   -0.0216    0.0777 C   0  0  0  0  0  0  0  0  0  0  0  0
   60.2708    0.5200    1.1558 C   0  0  0  0  0  0  0  0  0  0  0  0
   59.6344    1.0002    2.3407 C   0  0  0  0  0  0  0  0  0  0  0  0
   60.6175    1.4617    3.1499 C   0  0  0  0  0  0  0  0  0  0  0  0
   61.8522    1.2740    2.4497 C   0  0  0  0  0  0  0  0  0  0  0  0
   63.0724    1.7481    2.9102 C   0  0  0  0  0  0  0  0  0  0  0  0
   63.1138    2.4245    4.2312 C   0  0  0  0  0  0  0  0  0  0  0  0
   63.3944    3.7864    4.3137 C   0  0  0  0  0  0  0  0  0  0  0  0
   63.4217    4.4281    5.5484 C   0  0  0  0  0  0  0  0  0  0  0  0
   63.7386    5.8970    5.6295 C   0  0  0  0  0  0  0  0  0  0  0  0
   63.1712    3.6943    6.7028 C   0  0  0  0  0  0  0  0  0  0  0  0
   62.8905    2.3318    6.6359 C   0  0  0  0  0  0  0  0  0  0  0  0
   62.6056    1.5594    7.8956 C   0  0  0  0  0  0  0  0  0  0  0  0
   62.8601    1.7026    5.3969 C   0  0  0  0  0  0  0  0  0  0  0  0
   64.2422    1.6551    2.1678 C   0  0  0  0  0  0  0  0  0  0  0  0
   65.5030    2.1880    2.5939 C   0  0  0  0  0  0  0  0  0  0  0  0
   66.4020    1.8903    1.6269 C   0  0  0  0  0  0  0  0  0  0  0  0
   65.6964    1.1523    0.6241 C   0  0  0  0  0  0  0  0  0  0  0  0
   64.3709    1.0236    0.9559 N   0  0  0  0  0  0  0  0  0  0  0  0
   61.6270    0.6779    1.2288 N   0  0  0  0  0  0  0  0  0  0  0  0
   62.8738   -2.5721   -4.2109 C   0  0  0  0  0  0  0  0  0  0  0  0
   63.3317   -2.0580   -5.4233 C   0  0  0  0  0  0  0  0  0  0  0  0
   63.2971   -2.8335   -6.5770 C   0  0  0  0  0  0  0  0  0  0  0  0
   63.7691   -2.2673   -7.8890 C   0  0  0  0  0  0  0  0  0  0  0  0
   62.8007   -4.1322   -6.5110 C   0  0  0  0  0  0  0  0  0  0  0  0
   62.3382   -4.6586   -5.3087 C   0  0  0  0  0  0  0  0  0  0  0  0
   61.8226   -6.0709   -5.2456 C   0  0  0  0  0  0  0  0  0  0  0  0
   62.3757   -3.8729   -4.1615 C   0  0  0  0  0  0  0  0  0  0  0  0
   67.3779    0.7310   -0.5901 H   0  0  0  0  0  0  0  0  0  0  0  0
   67.3998   -0.8697   -2.6223 H   0  0  0  0  0  0  0  0  0  0  0  0
   65.5143   -2.2417   -3.9802 H   0  0  0  0  0  0  0  0  0  0  0  0
   60.2687   -2.2666   -3.8579 H   0  0  0  0  0  0  0  0  0  0  0  0
   58.4152   -1.2569   -2.1789 H   0  0  0  0  0  0  0  0  0  0  0  0
   58.5709    0.9786    2.5161 H   0  0  0  0  0  0  0  0  0  0  0  0
   60.5246    1.9096    4.1258 H   0  0  0  0  0  0  0  0  0  0  0  0
   63.5742    4.3508    3.4052 H   0  0  0  0  0  0  0  0  0  0  0  0
   63.3128    6.3381    6.5308 H   0  0  0  0  0  0  0  0  0  0  0  0
   64.8210    6.0420    5.6576 H   0  0  0  0  0  0  0  0  0  0  0  0
   63.3493    6.4258    4.7591 H   0  0  0  0  0  0  0  0  0  0  0  0
   63.1920    4.1890    7.6685 H   0  0  0  0  0  0  0  0  0  0  0  0
   62.6327    0.4857    7.7105 H   0  0  0  0  0  0  0  0  0  0  0  0
   63.3361    1.8022    8.6684 H   0  0  0  0  0  0  0  0  0  0  0  0
   61.6149    1.8183    8.2756 H   0  0  0  0  0  0  0  0  0  0  0  0
   62.6502    0.6407    5.3304 H   0  0  0  0  0  0  0  0  0  0  0  0
   65.6669    2.7157    3.5194 H   0  0  0  0  0  0  0  0  0  0  0  0
   67.4545    2.1222    1.5875 H   0  0  0  0  0  0  0  0  0  0  0  0
   63.7009   -1.0391   -5.4652 H   0  0  0  0  0  0  0  0  0  0  0  0
   64.2389   -3.0403   -8.4977 H   0  0  0  0  0  0  0  0  0  0  0  0
   64.4837   -1.4597   -7.7299 H   0  0  0  0  0  0  0  0  0  0  0  0
   62.9200   -1.8662   -8.4471 H   0  0  0  0  0  0  0  0  0  0  0  0
   62.7723   -4.7409   -7.4089 H   0  0  0  0  0  0  0  0  0  0  0  0
   62.6483   -6.7590   -5.0499 H   0  0  0  0  0  0  0  0  0  0  0  0
   61.3596   -6.3575   -6.1902 H   0  0  0  0  0  0  0  0  0  0  0  0
   61.0911   -6.1823   -4.4451 H   0  0  0  0  0  0  0  0  0  0  0  0
   62.0279   -4.2750   -3.2162 H   0  0  0  0  0  0  0  0  0  0  0  0
   30.6669   -0.0780    0.0081 C   0  0  0  0  0  0  0  0  0  0  0  0
   31.8910   -0.0972    0.0108 C   0  0  0  0  0  0  0  0  0  0  0  0
   33.2336   -0.1090    0.0163 C   0  0  0  0  0  0  0  0  0  0  0  0
   34.4641   -0.1123    0.0089 C   0  0  0  0  0  0  0  0  0  0  0  0
   35.8019   -0.1068    0.0049 C   0  0  0  0  0  0  0  0  0  0  0  0
   37.0323   -0.0979   -0.0074 C   0  0  0  0  0  0  0  0  0  0  0  0
   38.3748   -0.0905   -0.0175 C   0  0  0  0  0  0  0  0  0  0  0  0
   39.5991   -0.0768   -0.0263 C   0  0  0  0  0  0  0  0  0  0  0  0
   49.2300   -0.0266    0.1387 C   0  0  0  0  0  0  0  0  0  0  0  0
   50.4537   -0.0196    0.1712 C   0  0  0  0  0  0  0  0  0  0  0  0
   51.7966   -0.0160    0.1922 C   0  0  0  0  0  0  0  0  0  0  0  0
   53.0267   -0.0201    0.2030 C   0  0  0  0  0  0  0  0  0  0  0  0
   54.3651   -0.0186    0.2002 C   0  0  0  0  0  0  0  0  0  0  0  0
   55.5951   -0.0255    0.1870 C   0  0  0  0  0  0  0  0  0  0  0  0
   56.9381   -0.0273    0.1604 C   0  0  0  0  0  0  0  0  0  0  0  0
   58.1616   -0.0312    0.1272 C   0  0  0  0  0  0  0  0  0  0  0  0
   44.4155   -0.0560   -0.0019 Ni  0  0  0  0  0  0  0  0  0  0  0  0
   41.0023   -0.0692   -0.0308 C   0  0  0  0  0  0  0  0  0  0  0  0
   41.6707    1.1587    0.0013 C   0  0  0  0  0  0  0  0  0  0  0  0
   40.9983    2.4170    0.0592 C   0  0  0  0  0  0  0  0  0  0  0  0
   41.9507    3.3728   -0.0704 C   0  0  0  0  0  0  0  0  0  0  0  0
   43.2016    2.6929   -0.2114 C   0  0  0  0  0  0  0  0  0  0  0  0
   43.0214    1.3310   -0.1233 N   0  0  0  0  0  0  0  0  0  0  0  0
   44.4073    3.3327   -0.4662 C   0  0  0  0  0  0  0  0  0  0  0  0
   45.6178    2.6557   -0.5256 C   0  0  0  0  0  0  0  0  0  0  0  0
   46.8702    3.2817   -0.8207 C   0  0  0  0  0  0  0  0  0  0  0  0
   47.8282    2.3377   -0.6538 C   0  0  0  0  0  0  0  0  0  0  0  0
   45.8035    1.3234   -0.2320 N   0  0  0  0  0  0  0  0  0  0  0  0
   47.1574    1.1367   -0.2711 C   0  0  0  0  0  0  0  0  0  0  0  0
   47.8267   -0.0348    0.0957 C   0  0  0  0  0  0  0  0  0  0  0  0
   47.1516   -1.2181    0.4099 C   0  0  0  0  0  0  0  0  0  0  0  0
   47.8148   -2.4181    0.8085 C   0  0  0  0  0  0  0  0  0  0  0  0
   46.8631   -3.3797    0.8891 C   0  0  0  0  0  0  0  0  0  0  0  0
   45.6220   -2.7632    0.5329 C   0  0  0  0  0  0  0  0  0  0  0  0
   44.4244   -3.4528    0.3984 C   0  0  0  0  0  0  0  0  0  0  0  0
   44.4307   -4.9258    0.5701 C   0  0  0  0  0  0  0  0  0  0  0  0
   43.6976   -5.5165    1.5977 C   0  0  0  0  0  0  0  0  0  0  0  0
   43.7044   -6.8974    1.7661 C   0  0  0  0  0  0  0  0  0  0  0  0
   42.9347   -7.5254    2.8964 C   0  0  0  0  0  0  0  0  0  0  0  0
   44.4456   -7.6869    0.8926 C   0  0  0  0  0  0  0  0  0  0  0  0
   45.1784   -7.1117   -0.1421 C   0  0  0  0  0  0  0  0  0  0  0  0
   45.9850   -7.9769   -1.0723 C   0  0  0  0  0  0  0  0  0  0  0  0
   45.1719   -5.7299   -0.2950 C   0  0  0  0  0  0  0  0  0  0  0  0
   43.2215   -2.8184    0.1197 C   0  0  0  0  0  0  0  0  0  0  0  0
   41.9790   -3.5045   -0.0614 C   0  0  0  0  0  0  0  0  0  0  0  0
   41.0198   -2.5535   -0.1727 C   0  0  0  0  0  0  0  0  0  0  0  0
   41.6806   -1.2917   -0.0731 C   0  0  0  0  0  0  0  0  0  0  0  0
   43.0309   -1.4559    0.0641 N   0  0  0  0  0  0  0  0  0  0  0  0
   45.8054   -1.4223    0.2821 N   0  0  0  0  0  0  0  0  0  0  0  0
   44.4010    4.8009   -0.6767 C   0  0  0  0  0  0  0  0  0  0  0  0
   45.0881    5.6407    0.1977 C   0  0  0  0  0  0  0  0  0  0  0  0
   45.0766    7.0191    0.0078 C   0  0  0  0  0  0  0  0  0  0  0  0
   45.8262    7.9174    0.9542 C   0  0  0  0  0  0  0  0  0  0  0  0
   44.3811    7.5525   -1.0724 C   0  0  0  0  0  0  0  0  0  0  0  0
   43.6930    6.7259   -1.9565 C   0  0  0  0  0  0  0  0  0  0  0  0
   42.9632    7.3143   -3.1336 C   0  0  0  0  0  0  0  0  0  0  0  0
   43.7028    5.3509   -1.7512 C   0  0  0  0  0  0  0  0  0  0  0  0
   39.9336    2.5374    0.1780 H   0  0  0  0  0  0  0  0  0  0  0  0
   41.8282    4.4436   -0.0684 H   0  0  0  0  0  0  0  0  0  0  0  0
   46.9903    4.3111   -1.1163 H   0  0  0  0  0  0  0  0  0  0  0  0
   48.8955    2.4312   -0.7744 H   0  0  0  0  0  0  0  0  0  0  0  0
   48.8736   -2.4998    0.9946 H   0  0  0  0  0  0  0  0  0  0  0  0
   46.9799   -4.4146    1.1664 H   0  0  0  0  0  0  0  0  0  0  0  0
   43.1310   -4.8897    2.2776 H   0  0  0  0  0  0  0  0  0  0  0  0
   42.6406   -8.5452    2.6478 H   0  0  0  0  0  0  0  0  0  0  0  0
   43.5569   -7.5599    3.7938 H   0  0  0  0  0  0  0  0  0  0  0  0
   42.0408   -6.9453    3.1265 H   0  0  0  0  0  0  0  0  0  0  0  0
   44.4504   -8.7649    1.0169 H   0  0  0  0  0  0  0  0  0  0  0  0
   46.1600   -7.4703   -2.0214 H   0  0  0  0  0  0  0  0  0  0  0  0
   45.4734   -8.9205   -1.2644 H   0  0  0  0  0  0  0  0  0  0  0  0
   46.9543   -8.2029   -0.6223 H   0  0  0  0  0  0  0  0  0  0  0  0
   45.7299   -5.2698   -1.1032 H   0  0  0  0  0  0  0  0  0  0  0  0
   41.8661   -4.5757   -0.0973 H   0  0  0  0  0  0  0  0  0  0  0  0
   39.9579   -2.6794   -0.3098 H   0  0  0  0  0  0  0  0  0  0  0  0
   45.6175    5.2139    1.0425 H   0  0  0  0  0  0  0  0  0  0  0  0
   45.4180    8.9280    0.9378 H   0  0  0  0  0  0  0  0  0  0  0  0
   46.8778    7.9692    0.6629 H   0  0  0  0  0  0  0  0  0  0  0  0
   45.7767    7.5328    1.9733 H   0  0  0  0  0  0  0  0  0  0  0  0
   44.3711    8.6266   -1.2263 H   0  0  0  0  0  0  0  0  0  0  0  0
   42.5261    8.2793   -2.8756 H   0  0  0  0  0  0  0  0  0  0  0  0
   42.1714    6.6470   -3.4740 H   0  0  0  0  0  0  0  0  0  0  0  0
   43.6589    7.4684   -3.9616 H   0  0  0  0  0  0  0  0  0  0  0  0
   43.1769    4.6952   -2.4364 H   0  0  0  0  0  0  0  0  0  0  0  0
  2  3  4  0  0  0  0
  3  4  4  0  0  0  0
  4  5  2  0  0  0  0
  5  6  4  0  0  0  0
  1  7  1  0  0  0  0
  3  7  4  0  0  0  0
  6  7  4  0  0  0  0
  6  8  4  0  0  0  0
  8  9  4  0  0  0  0
  9 10  4  0  0  0  0
 10 11  2  0  0  0  0
  1 12  1  0  0  0  0
  9 12  4  0  0  0  0
 11 13  4  0  0  0  0
 12 13  4  0  0  0  0
 13 14  4  0  0  0  0
 14 15  4  0  0  0  0
 15 16  4  0  0  0  0
 16 17  2  0  0  0  0
 17 18  4  0  0  0  0
 18 19  4  0  0  0  0
 19 20  1  0  0  0  0
 20 21  4  0  0  0  0
 21 22  4  0  0  0  0
 22 23  1  0  0  0  0
 22 24  4  0  0  0  0
 24 25  4  0  0  0  0
 25 26  1  0  0  0  0
 20 27  4  0  0  0  0
 25 27  4  0  0  0  0
 19 28  4  0  0  0  0
 28 29  4  0  0  0  0
 29 30  2  0  0  0  0
  2 31  4  0  0  0  0
 30 31  4  0  0  0  0
  1 32  1  0  0  0  0
 28 32  4  0  0  0  0
 31 32  4  0  0  0  0
  1 33  1  0  0  0  0
 15 33  4  0  0  0  0
 18 33  4  0  0  0  0
  8 34  1  0  0  0  0
 34 35  4  0  0  0  0
 35 36  4  0  0  0  0
 36 37  1  0  0  0  0
 36 38  4  0  0  0  0
 38 39  4  0  0  0  0
 39 40  1  0  0  0  0
 34 41  4  0  0  0  0
 39 41  4  0  0  0  0
  2 42  1  0  0  0  0
  4 43  1  0  0  0  0
  5 44  1  0  0  0  0
 10 45  1  0  0  0  0
 11 46  1  0  0  0  0
 16 47  1  0  0  0  0
 17 48  1  0  0  0  0
 21 49  1  0  0  0  0
 23 50  1  0  0  0  0
 23 51  1  0  0  0  0
 23 52  1  0  0  0  0
 24 53  1  0  0  0  0
 26 54  1  0  0  0  0
 26 55  1  0  0  0  0
 26 56  1  0  0  0  0
 27 57  1  0  0  0  0
 29 58  1  0  0  0  0
 30 59  1  0  0  0  0
 35 60  1  0  0  0  0
 37 61  1  0  0  0  0
 37 62  1  0  0  0  0
 37 63  1  0  0  0  0
 38 64  1  0  0  0  0
 40 65  1  0  0  0  0
 40 66  1  0  0  0  0
 40 67  1  0  0  0  0
 41 68  1  0  0  0  0
 70 71  4  0  0  0  0
 71 72  4  0  0  0  0
 72 73  2  0  0  0  0
 73 74  4  0  0  0  0
 69 75  1  0  0  0  0
 71 75  4  0  0  0  0
 74 75  4  0  0  0  0
 74 76  4  0  0  0  0
 76 77  4  0  0  0  0
 77 78  4  0  0  0  0
 78 79  2  0  0  0  0
 69 80  1  0  0  0  0
 77 80  4  0  0  0  0
 79 81  4  0  0  0  0
 80 81  4  0  0  0  0
 81 82  4  0  0  0  0
 82 83  4  0  0  0  0
 83 84  4  0  0  0  0
 84 85  2  0  0  0  0
 85 86  4  0  0  0  0
 86 87  4  0  0  0  0
 87 88  1  0  0  0  0
 88 89  4  0  0  0  0
 89 90  4  0  0  0  0
 90 91  1  0  0  0  0
 90 92  4  0  0  0  0
 92 93  4  0  0  0  0
 93 94  1  0  0  0  0
 88 95  4  0  0  0  0
 93 95  4  0  0  0  0
 87 96  4  0  0  0  0
 96 97  4  0  0  0  0
 97 98  2  0  0  0  0
 70 99  4  0  0  0  0
 98 99  4  0  0  0  0
 69100  1  0  0  0  0
 96100  4  0  0  0  0
 99100  4  0  0  0  0
 69101  1  0  0  0  0
 83101  4  0  0  0  0
 86101  4  0  0  0  0
 76102  1  0  0  0  0
102103  4  0  0  0  0
103104  4  0  0  0  0
104105  1  0  0  0  0
104106  4  0  0  0  0
106107  4  0  0  0  0
107108  1  0  0  0  0
102109  4  0  0  0  0
107109  4  0  0  0  0
 70110  1  0  0  0  0
 72111  1  0  0  0  0
 73112  1  0  0  0  0
 78113  1  0  0  0  0
 79114  1  0  0  0  0
 84115  1  0  0  0  0
 85116  1  0  0  0  0
 89117  1  0  0  0  0
 91118  1  0  0  0  0
 91119  1  0  0  0  0
 91120  1  0  0  0  0
 92121  1  0  0  0  0
 94122  1  0  0  0  0
 94123  1  0  0  0  0
 94124  1  0  0  0  0
 95125  1  0  0  0  0
 97126  1  0  0  0  0
 98127  1  0  0  0  0
103128  1  0  0  0  0
105129  1  0  0  0  0
105130  1  0  0  0  0
105131  1  0  0  0  0
106132  1  0  0  0  0
108133  1  0  0  0  0
108134  1  0  0  0  0
108135  1  0  0  0  0
109136  1  0  0  0  0
 14137  4  0  0  0  0
137138  3  0  0  0  0
138139  4  0  0  0  0
139140  3  0  0  0  0
140141  4  0  0  0  0
141142  3  0  0  0  0
142143  4  0  0  0  0
143144  3  0  0  0  0
145146  3  0  0  0  0
146147  4  0  0  0  0
147148  3  0  0  0  0
148149  4  0  0  0  0
149150  3  0  0  0  0
150151  4  0  0  0  0
 82152  4  0  0  0  0
151152  3  0  0  0  0
144154  4  0  0  0  0
154155  4  0  0  0  0
155156  4  0  0  0  0
156157  2  0  0  0  0
157158  4  0  0  0  0
153159  1  0  0  0  0
155159  4  0  0  0  0
158159  4  0  0  0  0
158160  4  0  0  0  0
160161  4  0  0  0  0
161162  4  0  0  0  0
162163  2  0  0  0  0
153164  1  0  0  0  0
161164  4  0  0  0  0
163165  4  0  0  0  0
164165  4  0  0  0  0
145166  4  0  0  0  0
165166  4  0  0  0  0
166167  4  0  0  0  0
167168  4  0  0  0  0
168169  2  0  0  0  0
169170  4  0  0  0  0
170171  4  0  0  0  0
171172  1  0  0  0  0
172173  4  0  0  0  0
173174  4  0  0  0  0
174175  1  0  0  0  0
174176  4  0  0  0  0
176177  4  0  0  0  0
177178  1  0  0  0  0
172179  4  0  0  0  0
177179  4  0  0  0  0
171180  4  0  0  0  0
180181  4  0  0  0  0
181182  2  0  0  0  0
154183  4  0  0  0  0
182183  4  0  0  0  0
153184  1  0  0  0  0
180184  4  0  0  0  0
183184  4  0  0  0  0
153185  1  0  0  0  0
167185  4  0  0  0  0
170185  4  0  0  0  0
160186  1  0  0  0  0
186187  4  0  0  0  0
187188  4  0  0  0  0
188189  1  0  0  0  0
188190  4  0  0  0  0
190191  4  0  0  0  0
191192  1  0  0  0  0
186193  4  0  0  0  0
191193  4  0  0  0  0
156194  1  0  0  0  0
157195  1  0  0  0  0
162196  1  0  0  0  0
163197  1  0  0  0  0
168198  1  0  0  0  0
169199  1  0  0  0  0
173200  1  0  0  0  0
175201  1  0  0  0  0
175202  1  0  0  0  0
175203  1  0  0  0  0
176204  1  0  0  0  0
178205  1  0  0  0  0
178206  1  0  0  0  0
178207  1  0  0  0  0
179208  1  0  0  0  0
181209  1  0  0  0  0
182210  1  0  0  0  0
187211  1  0  0  0  0
189212  1  0  0  0  0
189213  1  0  0  0  0
189214  1  0  0  0  0
190215  1  0  0  0  0
192216  1  0  0  0  0
192217  1  0  0  0  0
192218  1  0  0  0  0
193219  1  0  0  0  0
M  END
