 xtb: 6.5.1 (b24c23e)
          07302209433D

126145  0     0  0            999 V2000
   14.0845    0.0247   -0.0097 Zn  0  0  0  0  0  0  0  0  0  0  0  0
   10.6774    0.1188    0.1009 C   0  0  0  0  0  0  0  0  0  0  0  0
   11.3102    1.2336   -0.4365 C   0  0  0  0  0  0  0  0  0  0  0  0
   10.6390    2.3843   -0.9721 C   0  0  0  0  0  0  0  0  0  0  0  0
   11.6004    3.2435   -1.3948 C   0  0  0  0  0  0  0  0  0  0  0  0
   12.8719    2.6332   -1.1109 C   0  0  0  0  0  0  0  0  0  0  0  0
   12.6600    1.4119   -0.5403 N   0  0  0  0  0  0  0  0  0  0  0  0
   14.1245    3.1938   -1.3937 C   0  0  0  0  0  0  0  0  0  0  0  0
   14.1439    4.5552   -1.9817 C   0  0  0  0  0  0  0  0  0  0  0  0
   14.7235    4.7844   -3.2320 C   0  0  0  0  0  0  0  0  0  0  0  0
   14.7473    6.0539   -3.7820 C   0  0  0  0  0  0  0  0  0  0  0  0
   14.2008    7.1318   -3.0811 C   0  0  0  0  0  0  0  0  0  0  0  0
   14.1899    8.3974   -3.6441 N   0  0  0  0  0  0  0  0  0  0  0  0
   13.6132    6.9106   -1.8332 C   0  0  0  0  0  0  0  0  0  0  0  0
   13.5863    5.6362   -1.2946 C   0  0  0  0  0  0  0  0  0  0  0  0
   15.3605    2.5786   -1.1626 C   0  0  0  0  0  0  0  0  0  0  0  0
   16.6431    3.1820   -1.3964 C   0  0  0  0  0  0  0  0  0  0  0  0
   17.5857    2.2720   -1.0403 C   0  0  0  0  0  0  0  0  0  0  0  0
   15.5493    1.3206   -0.6544 N   0  0  0  0  0  0  0  0  0  0  0  0
   16.8903    1.1085   -0.5756 C   0  0  0  0  0  0  0  0  0  0  0  0
   17.5172   -0.0655   -0.1096 C   0  0  0  0  0  0  0  0  0  0  0  0
   16.8585   -1.2078    0.3894 C   0  0  0  0  0  0  0  0  0  0  0  0
   17.5180   -2.4063    0.8157 C   0  0  0  0  0  0  0  0  0  0  0  0
   16.5511   -3.2664    1.2274 C   0  0  0  0  0  0  0  0  0  0  0  0
   15.2904   -2.5965    1.0667 C   0  0  0  0  0  0  0  0  0  0  0  0
   15.5150   -1.3499    0.5447 N   0  0  0  0  0  0  0  0  0  0  0  0
   14.0395   -3.1440    1.3743 C   0  0  0  0  0  0  0  0  0  0  0  0
   14.0187   -4.5050    1.9641 C   0  0  0  0  0  0  0  0  0  0  0  0
   14.6478   -4.7649    3.1839 C   0  0  0  0  0  0  0  0  0  0  0  0
   14.6267   -6.0328    3.7380 C   0  0  0  0  0  0  0  0  0  0  0  0
   13.9842   -7.0787    3.0710 C   0  0  0  0  0  0  0  0  0  0  0  0
   13.9271   -8.3400    3.6407 N   0  0  0  0  0  0  0  0  0  0  0  0
   13.3485   -6.8265    1.8528 C   0  0  0  0  0  0  0  0  0  0  0  0
   13.3666   -5.5535    1.3107 C   0  0  0  0  0  0  0  0  0  0  0  0
   12.8041   -2.5154    1.1703 C   0  0  0  0  0  0  0  0  0  0  0  0
   11.5219   -3.0558    1.5367 C   0  0  0  0  0  0  0  0  0  0  0  0
   10.5839   -2.1437    1.1769 C   0  0  0  0  0  0  0  0  0  0  0  0
   11.2812   -1.0304    0.5975 C   0  0  0  0  0  0  0  0  0  0  0  0
   12.6231   -1.2830    0.6133 N   0  0  0  0  0  0  0  0  0  0  0  0
    9.5927    0.1490    0.1365 H   0  0  0  0  0  0  0  0  0  0  0  0
    9.5681    2.5049   -1.0223 H   0  0  0  0  0  0  0  0  0  0  0  0
   11.4637    4.2017   -1.8702 H   0  0  0  0  0  0  0  0  0  0  0  0
   15.1426    3.9516   -3.7863 H   0  0  0  0  0  0  0  0  0  0  0  0
   15.1920    6.2168   -4.7578 H   0  0  0  0  0  0  0  0  0  0  0  0
   14.8948    8.5540   -4.3470 H   0  0  0  0  0  0  0  0  0  0  0  0
   14.1012    9.1536   -2.9841 H   0  0  0  0  0  0  0  0  0  0  0  0
   13.1833    7.7426   -1.2860 H   0  0  0  0  0  0  0  0  0  0  0  0
   13.1462    5.4765   -0.3162 H   0  0  0  0  0  0  0  0  0  0  0  0
   16.8024    4.1807   -1.7701 H   0  0  0  0  0  0  0  0  0  0  0  0
   18.6584    2.3765   -1.0779 H   0  0  0  0  0  0  0  0  0  0  0  0
   18.5843   -2.5661    0.7913 H   0  0  0  0  0  0  0  0  0  0  0  0
   16.6786   -4.2720    1.5947 H   0  0  0  0  0  0  0  0  0  0  0  0
   15.1412   -3.9564    3.7124 H   0  0  0  0  0  0  0  0  0  0  0  0
   15.1095   -6.2191    4.6912 H   0  0  0  0  0  0  0  0  0  0  0  0
   14.6594   -8.5392    4.3036 H   0  0  0  0  0  0  0  0  0  0  0  0
   13.7537   -9.0905    2.9909 H   0  0  0  0  0  0  0  0  0  0  0  0
   12.8448   -7.6336    1.3320 H   0  0  0  0  0  0  0  0  0  0  0  0
   12.8865   -5.3700    0.3556 H   0  0  0  0  0  0  0  0  0  0  0  0
   11.3641   -4.0065    2.0204 H   0  0  0  0  0  0  0  0  0  0  0  0
    9.5135   -2.2053    1.2972 H   0  0  0  0  0  0  0  0  0  0  0  0
   30.1247   -0.0222    0.0156 Zn  0  0  0  0  0  0  0  0  0  0  0  0
   33.5317    0.0181    0.1556 C   0  0  0  0  0  0  0  0  0  0  0  0
   32.8990   -1.0459    0.7876 C   0  0  0  0  0  0  0  0  0  0  0  0
   33.5701   -2.1281    1.4508 C   0  0  0  0  0  0  0  0  0  0  0  0
   32.6088   -2.9553    1.9331 C   0  0  0  0  0  0  0  0  0  0  0  0
   31.3372   -2.3815    1.5812 C   0  0  0  0  0  0  0  0  0  0  0  0
   31.5491   -1.2310    0.8787 N   0  0  0  0  0  0  0  0  0  0  0  0
   30.0847   -2.9270    1.8921 C   0  0  0  0  0  0  0  0  0  0  0  0
   30.0652   -4.1693    2.7020 C   0  0  0  0  0  0  0  0  0  0  0  0
   29.4855   -5.3381    2.2022 C   0  0  0  0  0  0  0  0  0  0  0  0
   29.4616   -6.4979    2.9566 C   0  0  0  0  0  0  0  0  0  0  0  0
   30.0082   -6.5092    4.2422 C   0  0  0  0  0  0  0  0  0  0  0  0
   30.0191   -7.6777    4.9861 N   0  0  0  0  0  0  0  0  0  0  0  0
   30.5959   -5.3468    4.7472 C   0  0  0  0  0  0  0  0  0  0  0  0
   30.6228   -4.1938    3.9825 C   0  0  0  0  0  0  0  0  0  0  0  0
   28.8486   -2.3944    1.5071 C   0  0  0  0  0  0  0  0  0  0  0  0
   27.5660   -2.9225    1.8809 C   0  0  0  0  0  0  0  0  0  0  0  0
   26.6234   -2.1226    1.3195 C   0  0  0  0  0  0  0  0  0  0  0  0
   28.6599   -1.2756    0.7395 N   0  0  0  0  0  0  0  0  0  0  0  0
   27.3190   -1.0926    0.6063 C   0  0  0  0  0  0  0  0  0  0  0  0
   26.6920   -0.0556   -0.1147 C   0  0  0  0  0  0  0  0  0  0  0  0
   27.3507    0.9915   -0.7911 C   0  0  0  0  0  0  0  0  0  0  0  0
   26.6912    2.0093   -1.5543 C   0  0  0  0  0  0  0  0  0  0  0  0
   27.6582    2.8273   -2.0440 C   0  0  0  0  0  0  0  0  0  0  0  0
   28.9188    2.3231   -1.5745 C   0  0  0  0  0  0  0  0  0  0  0  0
   28.6943    1.1994   -0.8238 N   0  0  0  0  0  0  0  0  0  0  0  0
   30.1698    2.8820   -1.8610 C   0  0  0  0  0  0  0  0  0  0  0  0
   30.1906    4.1256   -2.6696 C   0  0  0  0  0  0  0  0  0  0  0  0
   29.5617    5.2859   -2.2120 C   0  0  0  0  0  0  0  0  0  0  0  0
   29.5828    6.4483   -2.9626 C   0  0  0  0  0  0  0  0  0  0  0  0
   30.2251    6.4703   -4.2030 C   0  0  0  0  0  0  0  0  0  0  0  0
   30.2822    7.6420   -4.9395 N   0  0  0  0  0  0  0  0  0  0  0  0
   30.8606    5.3156   -4.6661 C   0  0  0  0  0  0  0  0  0  0  0  0
   30.8425    4.1603   -3.9046 C   0  0  0  0  0  0  0  0  0  0  0  0
   31.4052    2.3647   -1.4497 C   0  0  0  0  0  0  0  0  0  0  0  0
   32.6873    2.9686   -1.6976 C   0  0  0  0  0  0  0  0  0  0  0  0
   33.6253    2.1650   -1.1359 C   0  0  0  0  0  0  0  0  0  0  0  0
   32.9280    1.0669   -0.5280 C   0  0  0  0  0  0  0  0  0  0  0  0
   31.5861    1.2196   -0.7301 N   0  0  0  0  0  0  0  0  0  0  0  0
   34.6165    0.0312    0.2006 H   0  0  0  0  0  0  0  0  0  0  0  0
   34.6411   -2.2365    1.5237 H   0  0  0  0  0  0  0  0  0  0  0  0
   32.7454   -3.8811    2.4689 H   0  0  0  0  0  0  0  0  0  0  0  0
   29.0663   -5.3400    1.2018 H   0  0  0  0  0  0  0  0  0  0  0  0
   29.0168   -7.4012    2.5533 H   0  0  0  0  0  0  0  0  0  0  0  0
   29.3142   -8.3500    4.7283 H   0  0  0  0  0  0  0  0  0  0  0  0
   30.1078   -7.5453    5.9811 H   0  0  0  0  0  0  0  0  0  0  0  0
   31.0258   -5.3504    5.7430 H   0  0  0  0  0  0  0  0  0  0  0  0
   31.0630   -3.2901    4.3899 H   0  0  0  0  0  0  0  0  0  0  0  0
   27.4066   -3.7859    2.5067 H   0  0  0  0  0  0  0  0  0  0  0  0
   25.5507   -2.2116    1.3860 H   0  0  0  0  0  0  0  0  0  0  0  0
   25.6249    2.0774   -1.7009 H   0  0  0  0  0  0  0  0  0  0  0  0
   27.5308    3.6890   -2.6794 H   0  0  0  0  0  0  0  0  0  0  0  0
   29.0684    5.2797   -1.2461 H   0  0  0  0  0  0  0  0  0  0  0  0
   29.1001    7.3458   -2.5912 H   0  0  0  0  0  0  0  0  0  0  0  0
   29.5501    8.3048   -4.7389 H   0  0  0  0  0  0  0  0  0  0  0  0
   30.4553    7.5151   -5.9241 H   0  0  0  0  0  0  0  0  0  0  0  0
   31.3642    5.3274   -5.6266 H   0  0  0  0  0  0  0  0  0  0  0  0
   31.3226    3.2629   -4.2795 H   0  0  0  0  0  0  0  0  0  0  0  0
   32.8452    3.8970   -2.2229 H   0  0  0  0  0  0  0  0  0  0  0  0
   34.6957    2.2993   -1.1206 H   0  0  0  0  0  0  0  0  0  0  0  0
   22.7189   -0.0901   -0.1811 C   0  0  0  0  0  0  0  0  0  0  0  0
   21.4903   -0.1009   -0.1758 C   0  0  0  0  0  0  0  0  0  0  0  0
   20.1459   -0.1002   -0.1621 C   0  0  0  0  0  0  0  0  0  0  0  0
   18.9218   -0.0932   -0.1404 C   0  0  0  0  0  0  0  0  0  0  0  0
   24.0633   -0.0790   -0.1720 C   0  0  0  0  0  0  0  0  0  0  0  0
   25.2874   -0.0650   -0.1537 C   0  0  0  0  0  0  0  0  0  0  0  0
  2  3  4  0  0  0  0
  3  4  4  0  0  0  0
  4  5  2  0  0  0  0
  5  6  4  0  0  0  0
  1  7  1  0  0  0  0
  3  7  4  0  0  0  0
  6  7  4  0  0  0  0
  6  8  4  0  0  0  0
  8  9  1  0  0  0  0
  9 10  4  0  0  0  0
 10 11  4  0  0  0  0
 11 12  4  0  0  0  0
 12 13  1  0  0  0  0
 12 14  4  0  0  0  0
  9 15  4  0  0  0  0
 14 15  4  0  0  0  0
  8 16  4  0  0  0  0
 16 17  4  0  0  0  0
 17 18  2  0  0  0  0
  1 19  1  0  0  0  0
 16 19  4  0  0  0  0
 18 20  4  0  0  0  0
 19 20  4  0  0  0  0
 20 21  4  0  0  0  0
 21 22  4  0  0  0  0
 22 23  4  0  0  0  0
 23 24  2  0  0  0  0
 24 25  4  0  0  0  0
  1 26  1  0  0  0  0
 22 26  4  0  0  0  0
 25 26  4  0  0  0  0
 25 27  4  0  0  0  0
 27 28  1  0  0  0  0
 28 29  4  0  0  0  0
 29 30  4  0  0  0  0
 30 31  4  0  0  0  0
 31 32  1  0  0  0  0
 31 33  4  0  0  0  0
 28 34  4  0  0  0  0
 33 34  4  0  0  0  0
 27 35  4  0  0  0  0
 35 36  4  0  0  0  0
 36 37  2  0  0  0  0
  2 38  4  0  0  0  0
 37 38  4  0  0  0  0
  1 39  1  0  0  0  0
 35 39  4  0  0  0  0
 38 39  4  0  0  0  0
  2 40  1  0  0  0  0
  4 41  1  0  0  0  0
  5 42  1  0  0  0  0
 10 43  1  0  0  0  0
 11 44  1  0  0  0  0
 13 45  1  0  0  0  0
 13 46  1  0  0  0  0
 14 47  1  0  0  0  0
 15 48  1  0  0  0  0
 17 49  1  0  0  0  0
 18 50  1  0  0  0  0
 23 51  1  0  0  0  0
 24 52  1  0  0  0  0
 29 53  1  0  0  0  0
 30 54  1  0  0  0  0
 32 55  1  0  0  0  0
 32 56  1  0  0  0  0
 33 57  1  0  0  0  0
 34 58  1  0  0  0  0
 36 59  1  0  0  0  0
 37 60  1  0  0  0  0
 62 63  4  0  0  0  0
 63 64  4  0  0  0  0
 64 65  2  0  0  0  0
 65 66  4  0  0  0  0
 61 67  1  0  0  0  0
 63 67  4  0  0  0  0
 66 67  4  0  0  0  0
 66 68  4  0  0  0  0
 68 69  1  0  0  0  0
 69 70  4  0  0  0  0
 70 71  4  0  0  0  0
 71 72  4  0  0  0  0
 72 73  1  0  0  0  0
 72 74  4  0  0  0  0
 69 75  4  0  0  0  0
 74 75  4  0  0  0  0
 68 76  4  0  0  0  0
 76 77  4  0  0  0  0
 77 78  2  0  0  0  0
 61 79  1  0  0  0  0
 76 79  4  0  0  0  0
 78 80  4  0  0  0  0
 79 80  4  0  0  0  0
 80 81  4  0  0  0  0
 81 82  4  0  0  0  0
 82 83  4  0  0  0  0
 83 84  2  0  0  0  0
 84 85  4  0  0  0  0
 61 86  1  0  0  0  0
 82 86  4  0  0  0  0
 85 86  4  0  0  0  0
 85 87  4  0  0  0  0
 87 88  1  0  0  0  0
 88 89  4  0  0  0  0
 89 90  4  0  0  0  0
 90 91  4  0  0  0  0
 91 92  1  0  0  0  0
 91 93  4  0  0  0  0
 88 94  4  0  0  0  0
 93 94  4  0  0  0  0
 87 95  4  0  0  0  0
 95 96  4  0  0  0  0
 96 97  2  0  0  0  0
 62 98  4  0  0  0  0
 97 98  4  0  0  0  0
 61 99  1  0  0  0  0
 95 99  4  0  0  0  0
 98 99  4  0  0  0  0
 62100  1  0  0  0  0
 64101  1  0  0  0  0
 65102  1  0  0  0  0
 70103  1  0  0  0  0
 71104  1  0  0  0  0
 73105  1  0  0  0  0
 73106  1  0  0  0  0
 74107  1  0  0  0  0
 75108  1  0  0  0  0
 77109  1  0  0  0  0
 78110  1  0  0  0  0
 83111  1  0  0  0  0
 84112  1  0  0  0  0
 89113  1  0  0  0  0
 90114  1  0  0  0  0
 92115  1  0  0  0  0
 92116  1  0  0  0  0
 93117  1  0  0  0  0
 94118  1  0  0  0  0
 96119  1  0  0  0  0
 97120  1  0  0  0  0
121122  3  0  0  0  0
122123  4  0  0  0  0
 21124  4  0  0  0  0
123124  3  0  0  0  0
121125  4  0  0  0  0
 81126  4  0  0  0  0
125126  3  0  0  0  0
M  END
