454

C 85.676325 0.090550 -0.013515
C 86.400726 0.001939 1.363589
C 85.780833 -0.030925 2.592579
C 86.801514 -0.148625 3.569971
C 88.012885 -0.182293 2.903963
N 87.756085 -0.068217 1.561078
C 89.444870 -0.360184 3.561448
C 89.498085 -0.631759 5.017385
C 89.696529 0.406463 5.925505
C 89.731358 0.148742 7.303953
C 89.555041 -1.145662 7.831644
N 89.594369 -1.393487 9.216771
C 89.297523 -0.275586 10.108979
C 89.181154 -2.709147 9.694923
C 89.382010 -2.176248 6.886771
C 89.346145 -1.927448 5.506178
C 90.572609 -0.290946 2.802954
C 91.884137 -0.517756 3.374074
C 92.786450 -0.415405 2.406021
N 90.764565 -0.038809 1.468912
C 92.101495 -0.098894 1.168023
C 92.774274 0.080696 -0.000184
C 92.001868 0.472212 -1.332739
C 92.567968 1.029105 -2.464466
C 91.542281 1.177313 -3.429075
C 90.372521 0.721650 -2.856621
N 90.654412 0.332212 -1.567705
C 88.948686 0.677000 -3.558211
C 88.899988 0.825549 -5.029604
C 88.724330 2.080292 -5.610638
C 88.717367 2.221966 -7.005402
C 88.896763 1.125544 -7.871877
N 88.897016 1.291429 -9.271479
C 89.157933 0.121193 -10.104318
C 89.451364 2.549890 -9.770198
C 89.033609 -0.133152 -7.255664
C 89.045943 -0.283162 -5.860683
C 87.826443 0.510022 -2.811285
C 86.497890 0.466986 -3.397041
C 85.614202 0.310474 -2.416140
C 86.342574 0.243109 -1.172945
N 87.667192 0.357195 -1.461605
H 84.594861 0.019204 -0.022178
H 84.716302 0.014252 2.765440
H 86.667881 -0.213401 4.640053
H 88.460845 -0.037313 0.828495
H 89.832228 1.418278 5.550134
H 89.909067 1.002616 7.948250
H 88.315321 0.159278 9.890524
H 89.287471 -0.599786 11.156217
H 90.068101 0.500003 10.045984
H 88.133893 -2.911545 9.444195
H 89.819887 -3.500852 9.288587
H 89.278969 -2.777642 10.784402
H 89.266243 -3.210808 7.189547
H 89.205369 -2.745127 4.802836
H 92.101787 -0.745154 4.402667
H 93.844436 -0.542277 2.545018
H 93.607236 1.290768 -2.592508
H 91.646221 1.569835 -4.429749
H 89.961367 0.029610 -0.887680
H 88.590782 2.947985 -4.968157
H 88.553314 3.222396 -7.390793
H 89.054248 0.372945 -11.166171
H 90.174000 -0.258679 -9.949808
H 88.431670 -0.676274 -9.911924
H 88.806440 3.398712 -9.521807
H 89.522729 2.539871 -10.863574
H 90.459370 2.725743 -9.377646
H 89.151632 -1.041213 -7.835926
H 89.170839 -1.267397 -5.413606
H 86.263073 0.549225 -4.443430
H 84.546683 0.243740 -2.524146
C 165.668274 0.087153 0.015084
C 164.943873 0.323686 -1.344444
C 165.563767 0.579711 -2.546920
C 164.543085 0.694307 -3.524680
C 163.331714 0.505520 -2.885103
N 163.588514 0.301759 -1.552874
C 161.899729 0.486641 -3.565966
C 161.846514 0.563777 -5.045005
C 161.648070 1.785884 -5.684570
C 161.613241 1.858331 -7.085031
C 161.789558 0.723610 -7.901333
N 161.750231 0.807244 -9.305967
C 162.047077 2.103082 -9.911393
C 162.163445 -0.359749 -10.079090
C 161.962589 -0.499684 -7.224249
C 161.998454 -0.581307 -5.823793
C 160.771991 0.376223 -2.812365
C 159.460463 0.289551 -3.420731
C 158.558149 0.162221 -2.455646
N 160.580034 0.308752 -1.456382
C 159.243104 0.179837 -1.177949
C 158.570326 0.080696 -0.000184
C 159.342732 0.149072 1.387012
C 158.776631 0.425278 2.617722
C 159.802319 0.343336 3.590203
C 160.972079 0.034494 2.926917
N 160.690187 -0.042087 1.582632
C 162.395914 -0.173308 3.598512
C 162.444611 -0.373666 5.063750
C 162.620269 0.709998 5.922616
C 162.627233 0.520911 7.311747
C 162.447836 -0.748017 7.897189
N 162.447584 -0.914700 9.296696
C 162.186667 -2.247506 9.832143
C 161.893235 0.191867 10.076409
C 162.310990 -1.827282 7.003197
C 162.298656 -1.646247 5.611902
C 163.518157 -0.160619 2.833256
C 164.846709 -0.339710 3.392620
C 165.730397 -0.262023 2.402353
C 165.002025 -0.036210 1.177984
N 163.677407 0.007061 1.485340
H 166.749738 0.015763 0.006789
H 166.628297 0.664134 -2.704383
H 164.676718 0.882073 -4.580150
H 162.883755 0.160146 -0.833444
H 161.512371 2.681575 -5.082564
H 161.435532 2.839404 -7.511314
H 163.029278 2.474652 -9.597124
H 162.057129 2.033294 -11.005442
H 161.276499 2.842319 -9.668418
H 163.210707 -0.615262 -9.882766
H 161.524712 -1.224625 -9.869575
H 162.065630 -0.171054 -11.154287
H 162.078356 -1.434497 -7.761011
H 162.139230 -1.541027 -5.331628
H 159.242812 0.309501 -4.473971
H 157.500163 0.071451 -2.620501
H 157.737364 0.649654 2.803511
H 159.698378 0.490455 4.654993
H 161.383233 -0.176923 0.850634
H 162.753817 1.704080 5.501337
H 162.791285 1.403186 7.920826
H 162.290352 -2.251573 10.923424
H 161.170599 -2.580598 9.592923
H 162.912929 -2.977691 9.458244
H 162.538159 1.075260 10.033827
H 161.821871 -0.074069 11.136999
H 160.885229 0.454806 9.735991
H 162.192967 -2.846027 7.354531
H 162.173760 -2.498324 4.946648
H 165.081526 -0.504947 4.429147
H 166.797916 -0.352207 2.491715
C 96.539158 0.093133 0.002258
C 95.286888 0.073952 -0.002091
C 97.852826 0.092367 0.004190
C 99.355960 0.073952 -0.002091
C 110.737098 0.093133 0.002258
C 109.484827 0.073952 -0.002091
C 112.050766 0.092367 0.004190
C 113.553899 0.073952 -0.002091
C 124.935037 0.093133 0.002258
C 123.682767 0.073952 -0.002091
C 126.248705 0.092367 0.004190
C 127.751839 0.073952 -0.002091
C 139.132976 0.093133 0.002258
C 137.880706 0.073952 -0.002091
C 140.446645 0.092367 0.004190
C 141.949778 0.073952 -0.002091
C 153.330916 0.093133 0.002258
C 152.078645 0.073952 -0.002091
C 154.644584 0.092367 0.004190
C 156.147718 0.073952 -0.002091
C 100.802085 -0.046044 0.000238
C 101.595872 -0.396015 1.326598
C 101.088120 -1.011086 2.453303
C 102.125337 -1.047061 3.420137
C 103.235991 -0.459741 2.851270
N 102.925236 -0.136921 1.554011
C 104.626131 -0.192662 3.562843
C 104.615617 -0.011492 5.032508
C 104.165667 1.182315 5.593074
C 104.127553 1.346402 6.985852
C 104.517486 0.322671 7.868797
N 104.479435 0.466979 9.271135
C 104.004173 1.734154 9.817316
C 104.062728 -0.723496 10.012763
C 104.993139 -0.862121 7.274363
C 105.035822 -1.033134 5.883319
C 105.760750 -0.090915 2.821693
C 107.047360 0.209548 3.414940
C 107.955276 0.252551 2.445857
N 105.968868 -0.211491 1.475472
C 107.293134 -0.019519 1.185730
C 107.956724 -0.046044 0.000238
C 107.162925 -0.345152 -1.338524
C 107.670331 -0.918996 -2.487170
C 106.633419 -0.917828 -3.454994
C 105.523251 -0.350660 -2.864605
N 105.833894 -0.077260 -1.556042
C 104.133484 -0.055722 -3.565848
C 104.144457 0.177988 -5.028062
C 104.603822 1.386337 -5.547025
C 104.641255 1.597912 -6.933719
C 104.241048 0.610739 -7.854463
N 104.278131 0.815600 -9.247713
C 104.456573 -0.371856 -10.081206
C 104.905085 2.034447 -9.750242
C 103.757249 -0.589800 -7.298780
C 103.716113 -0.809493 -5.914026
C 102.998745 0.018580 -2.821208
C 101.711937 0.341355 -3.402288
C 100.803917 0.346953 -2.432129
C 101.466093 0.026863 -1.183401
N 102.790778 -0.152762 -1.480324
H 100.078803 -1.372828 2.577192
H 102.064149 -1.436753 4.425216
H 103.586634 0.203514 0.861815
H 103.842344 1.987600 4.936855
H 103.763929 2.301823 7.347103
H 104.123351 1.749885 10.907228
H 104.591874 2.577764 9.437471
H 102.942403 1.892625 9.595708
H 104.809801 -1.521033 9.951834
H 103.097206 -1.098755 9.653581
H 103.953377 -0.498320 11.080432
H 105.365571 -1.681339 7.879838
H 105.405762 -1.961937 5.454095
H 107.241465 0.380952 4.458942
H 108.999417 0.459691 2.592118
H 108.679409 -1.277252 -2.623760
H 106.694104 -1.269747 -4.474012
H 105.173349 0.239073 -0.851148
H 104.934071 2.166168 -4.863914
H 105.008925 2.564233 -7.260269
H 105.349845 -0.935232 -9.787801
H 103.578245 -1.024753 -10.040848
H 104.575842 -0.097351 -11.136013
H 105.972144 2.065190 -9.502755
H 104.816427 2.094996 -10.841141
H 104.408035 2.929457 -9.359527
H 103.383940 -1.390849 -7.926896
H 103.342131 -1.751018 -5.517473
H 101.517271 0.552363 -4.438735
H 99.759548 0.559464 -2.570049
C 115.000025 -0.046044 0.000238
C 115.793811 -0.396015 1.326598
C 115.286059 -1.011086 2.453303
C 116.323276 -1.047061 3.420137
C 117.433930 -0.459741 2.851270
N 117.123176 -0.136921 1.554011
C 118.824071 -0.192662 3.562843
C 118.813556 -0.011492 5.032508
C 118.363606 1.182315 5.593074
C 118.325492 1.346402 6.985852
C 118.715425 0.322671 7.868797
N 118.677374 0.466979 9.271135
C 118.202112 1.734154 9.817316
C 118.260668 -0.723496 10.012763
C 119.191079 -0.862121 7.274363
C 119.233761 -1.033134 5.883319
C 119.958690 -0.090915 2.821693
C 121.245300 0.209548 3.414940
C 122.153215 0.252551 2.445857
N 120.166807 -0.211491 1.475472
C 121.491073 -0.019519 1.185730
C 122.154663 -0.046044 0.000238
C 121.360865 -0.345152 -1.338524
C 121.868271 -0.918996 -2.487170
C 120.831358 -0.917828 -3.454994
C 119.721190 -0.350660 -2.864605
N 120.031833 -0.077260 -1.556042
C 118.331423 -0.055722 -3.565848
C 118.342396 0.177988 -5.028062
C 118.801762 1.386337 -5.547025
C 118.839194 1.597912 -6.933719
C 118.438988 0.610739 -7.854463
N 118.476071 0.815600 -9.247713
C 118.654512 -0.371856 -10.081206
C 119.103025 2.034447 -9.750242
C 117.955189 -0.589800 -7.298780
C 117.914052 -0.809493 -5.914026
C 117.196685 0.018580 -2.821208
C 115.909877 0.341355 -3.402288
C 115.001856 0.346953 -2.432129
C 115.664032 0.026863 -1.183401
N 116.988718 -0.152762 -1.480324
H 114.276742 -1.372828 2.577192
H 116.262089 -1.436753 4.425216
H 117.784573 0.203514 0.861815
H 118.040283 1.987600 4.936855
H 117.961869 2.301823 7.347103
H 118.321291 1.749885 10.907228
H 118.789813 2.577764 9.437471
H 117.140343 1.892625 9.595708
H 119.007741 -1.521033 9.951834
H 117.295145 -1.098755 9.653581
H 118.151316 -0.498320 11.080432
H 119.563511 -1.681339 7.879838
H 119.603702 -1.961937 5.454095
H 121.439404 0.380952 4.458942
H 123.197357 0.459691 2.592118
H 122.877348 -1.277252 -2.623760
H 120.892043 -1.269747 -4.474012
H 119.371288 0.239073 -0.851148
H 119.132010 2.166168 -4.863914
H 119.206864 2.564233 -7.260269
H 119.547785 -0.935232 -9.787801
H 117.776185 -1.024753 -10.040848
H 118.773781 -0.097351 -11.136013
H 120.170083 2.065190 -9.502755
H 119.014366 2.094996 -10.841141
H 118.605974 2.929457 -9.359527
H 117.581879 -1.390849 -7.926896
H 117.540070 -1.751018 -5.517473
H 115.715211 0.552363 -4.438735
H 113.957487 0.559464 -2.570049
C 129.197964 -0.046044 0.000238
C 129.991750 -0.396015 1.326598
C 129.483999 -1.011086 2.453303
C 130.521215 -1.047061 3.420137
C 131.631869 -0.459741 2.851270
N 131.321115 -0.136921 1.554011
C 133.022010 -0.192662 3.562843
C 133.011496 -0.011492 5.032508
C 132.561545 1.182315 5.593074
C 132.523432 1.346402 6.985852
C 132.913365 0.322671 7.868797
N 132.875314 0.466979 9.271135
C 132.400052 1.734154 9.817316
C 132.458607 -0.723496 10.012763
C 133.389018 -0.862121 7.274363
C 133.431701 -1.033134 5.883319
C 134.156629 -0.090915 2.821693
C 135.443239 0.209548 3.414940
C 136.351154 0.252551 2.445857
N 134.364746 -0.211491 1.475472
C 135.689012 -0.019519 1.185730
C 136.352602 -0.046044 0.000238
C 135.558804 -0.345152 -1.338524
C 136.066210 -0.918996 -2.487170
C 135.029298 -0.917828 -3.454994
C 133.919129 -0.350660 -2.864605
N 134.229773 -0.077260 -1.556042
C 132.529362 -0.055722 -3.565848
C 132.540335 0.177988 -5.028062
C 132.999701 1.386337 -5.547025
C 133.037134 1.597912 -6.933719
C 132.636927 0.610739 -7.854463
N 132.674010 0.815600 -9.247713
C 132.852452 -0.371856 -10.081206
C 133.300964 2.034447 -9.750242
C 132.153128 -0.589800 -7.298780
C 132.111991 -0.809493 -5.914026
C 131.394624 0.018580 -2.821208
C 130.107816 0.341355 -3.402288
C 129.199796 0.346953 -2.432129
C 129.861971 0.026863 -1.183401
N 131.186657 -0.152762 -1.480324
H 128.474681 -1.372828 2.577192
H 130.460028 -1.436753 4.425216
H 131.982512 0.203514 0.861815
H 132.238222 1.987600 4.936855
H 132.159808 2.301823 7.347103
H 132.519230 1.749885 10.907228
H 132.987753 2.577764 9.437471
H 131.338282 1.892625 9.595708
H 133.205680 -1.521033 9.951834
H 131.493085 -1.098755 9.653581
H 132.349255 -0.498320 11.080432
H 133.761450 -1.681339 7.879838
H 133.801641 -1.961937 5.454095
H 135.637344 0.380952 4.458942
H 137.395296 0.459691 2.592118
H 137.075287 -1.277252 -2.623760
H 135.089982 -1.269747 -4.474012
H 133.569228 0.239073 -0.851148
H 133.329949 2.166168 -4.863914
H 133.404803 2.564233 -7.260269
H 133.745724 -0.935232 -9.787801
H 131.974124 -1.024753 -10.040848
H 132.971720 -0.097351 -11.136013
H 134.368022 2.065190 -9.502755
H 133.212306 2.094996 -10.841141
H 132.803914 2.929457 -9.359527
H 131.779818 -1.390849 -7.926896
H 131.738009 -1.751018 -5.517473
H 129.913150 0.552363 -4.438735
H 128.155426 0.559464 -2.570049
C 143.395903 -0.046044 0.000238
C 144.189690 -0.396015 1.326598
C 143.681938 -1.011086 2.453303
C 144.719155 -1.047061 3.420137
C 145.829809 -0.459741 2.851270
N 145.519054 -0.136921 1.554011
C 147.219949 -0.192662 3.562843
C 147.209435 -0.011492 5.032508
C 146.759485 1.182315 5.593074
C 146.721371 1.346402 6.985852
C 147.111304 0.322671 7.868797
N 147.073253 0.466979 9.271135
C 146.597991 1.734154 9.817316
C 146.656546 -0.723496 10.012763
C 147.586957 -0.862121 7.274363
C 147.629640 -1.033134 5.883319
C 148.354569 -0.090915 2.821693
C 149.641178 0.209548 3.414940
C 150.549094 0.252551 2.445857
N 148.562686 -0.211491 1.475472
C 149.886952 -0.019519 1.185730
C 150.550542 -0.046044 0.000238
C 149.756743 -0.345152 -1.338524
C 150.264149 -0.918996 -2.487170
C 149.227237 -0.917828 -3.454994
C 148.117069 -0.350660 -2.864605
N 148.427712 -0.077260 -1.556042
C 146.727302 -0.055722 -3.565848
C 146.738275 0.177988 -5.028062
C 147.197640 1.386337 -5.547025
C 147.235073 1.597912 -6.933719
C 146.834866 0.610739 -7.854463
N 146.871950 0.815600 -9.247713
C 147.050391 -0.371856 -10.081206
C 147.498904 2.034447 -9.750242
C 146.351068 -0.589800 -7.298780
C 146.309931 -0.809493 -5.914026
C 145.592563 0.018580 -2.821208
C 144.305755 0.341355 -3.402288
C 143.397735 0.346953 -2.432129
C 144.059911 0.026863 -1.183401
N 145.384596 -0.152762 -1.480324
H 142.672621 -1.372828 2.577192
H 144.657968 -1.436753 4.425216
H 146.180452 0.203514 0.861815
H 146.436162 1.987600 4.936855
H 146.357747 2.301823 7.347103
H 146.717169 1.749885 10.907228
H 147.185692 2.577764 9.437471
H 145.536221 1.892625 9.595708
H 147.403619 -1.521033 9.951834
H 145.691024 -1.098755 9.653581
H 146.547195 -0.498320 11.080432
H 147.959389 -1.681339 7.879838
H 147.999580 -1.961937 5.454095
H 149.835283 0.380952 4.458942
H 151.593235 0.459691 2.592118
H 151.273227 -1.277252 -2.623760
H 149.287922 -1.269747 -4.474012
H 147.767167 0.239073 -0.851148
H 147.527889 2.166168 -4.863914
H 147.602743 2.564233 -7.260269
H 147.943663 -0.935232 -9.787801
H 146.172063 -1.024753 -10.040848
H 147.169660 -0.097351 -11.136013
H 148.565962 2.065190 -9.502755
H 147.410245 2.094996 -10.841141
H 147.001853 2.929457 -9.359527
H 145.977758 -1.390849 -7.926896
H 145.935949 -1.751018 -5.517473
H 144.111089 0.552363 -4.438735
H 142.353366 0.559464 -2.570049
