 xtb: 6.5.1 (b24c23e)
          07292222113D

197226  0     0  0            999 V2000
   33.4488   -0.0907    0.0061 Fe  0  0  0  0  0  0  0  0  0  0  0  0
   30.0599   -0.1367    0.0325 C   0  0  0  0  0  0  0  0  0  0  0  0
   30.7186   -0.3027    1.2333 C   0  0  0  0  0  0  0  0  0  0  0  0
   30.0496   -0.5106    2.4822 C   0  0  0  0  0  0  0  0  0  0  0  0
   31.0057   -0.5055    3.4402 C   0  0  0  0  0  0  0  0  0  0  0  0
   32.2602   -0.3032    2.7739 C   0  0  0  0  0  0  0  0  0  0  0  0
   32.0714   -0.1944    1.4224 N   0  0  0  0  0  0  0  0  0  0  0  0
   33.4713   -0.1277    3.4328 C   0  0  0  0  0  0  0  0  0  0  0  0
   34.6714    0.0774    2.7665 C   0  0  0  0  0  0  0  0  0  0  0  0
   35.9349    0.2238    3.4259 C   0  0  0  0  0  0  0  0  0  0  0  0
   36.8807    0.2548    2.4569 C   0  0  0  0  0  0  0  0  0  0  0  0
   34.8452    0.0497    1.4032 N   0  0  0  0  0  0  0  0  0  0  0  0
   36.1945    0.1231    1.2099 C   0  0  0  0  0  0  0  0  0  0  0  0
   36.8542   -0.0018   -0.0169 C   0  0  0  0  0  0  0  0  0  0  0  0
   36.1776   -0.1242   -1.2346 C   0  0  0  0  0  0  0  0  0  0  0  0
   36.8429   -0.2706   -2.4911 C   0  0  0  0  0  0  0  0  0  0  0  0
   35.8830   -0.2268   -3.4463 C   0  0  0  0  0  0  0  0  0  0  0  0
   34.6333   -0.0499   -2.7686 C   0  0  0  0  0  0  0  0  0  0  0  0
   33.4152    0.1088   -3.4165 C   0  0  0  0  0  0  0  0  0  0  0  0
   33.4047    0.1799   -4.8958 C   0  0  0  0  0  0  0  0  0  0  0  0
   32.7223   -0.7798   -5.6480 C   0  0  0  0  0  0  0  0  0  0  0  0
   32.7153   -0.7076   -7.0288 C   0  0  0  0  0  0  0  0  0  0  0  0
   33.3853    0.3281   -7.6827 C   0  0  0  0  0  0  0  0  0  0  0  0
   33.3448    0.3654   -9.1644 C   0  0  0  0  0  0  0  0  0  0  0  0
   34.0211    1.3959   -9.6941 O   0  0  0  0  0  0  0  0  0  0  0  0
   32.7673   -0.4399   -9.8495 O   0  0  0  0  0  0  0  0  0  0  0  0
   34.0672    1.2893   -6.9360 C   0  0  0  0  0  0  0  0  0  0  0  0
   34.0782    1.2118   -5.5543 C   0  0  0  0  0  0  0  0  0  0  0  0
   32.2058    0.1933   -2.7368 C   0  0  0  0  0  0  0  0  0  0  0  0
   30.9346    0.3760   -3.3766 C   0  0  0  0  0  0  0  0  0  0  0  0
   29.9934    0.2933   -2.4074 C   0  0  0  0  0  0  0  0  0  0  0  0
   30.6904    0.0775   -1.1754 C   0  0  0  0  0  0  0  0  0  0  0  0
   32.0453    0.0630   -1.3831 N   0  0  0  0  0  0  0  0  0  0  0  0
   34.8275   -0.0221   -1.4093 N   0  0  0  0  0  0  0  0  0  0  0  0
   33.4823   -0.1775    4.9146 C   0  0  0  0  0  0  0  0  0  0  0  0
   33.1808   -1.3687    5.5792 C   0  0  0  0  0  0  0  0  0  0  0  0
   33.1931   -1.4179    6.9609 C   0  0  0  0  0  0  0  0  0  0  0  0
   33.5017   -0.2759    7.7025 C   0  0  0  0  0  0  0  0  0  0  0  0
   33.4997   -0.3787    9.1817 C   0  0  0  0  0  0  0  0  0  0  0  0
   33.8006    0.7729    9.8004 O   0  0  0  0  0  0  0  0  0  0  0  0
   33.2538   -1.3874    9.7927 O   0  0  0  0  0  0  0  0  0  0  0  0
   33.8007    0.9163    7.0426 C   0  0  0  0  0  0  0  0  0  0  0  0
   33.7933    0.9622    5.6591 C   0  0  0  0  0  0  0  0  0  0  0  0
   28.9763   -0.1684    0.0401 H   0  0  0  0  0  0  0  0  0  0  0  0
   28.9836   -0.6302    2.5924 H   0  0  0  0  0  0  0  0  0  0  0  0
   30.8836   -0.6137    4.5056 H   0  0  0  0  0  0  0  0  0  0  0  0
   36.0721    0.2748    4.4937 H   0  0  0  0  0  0  0  0  0  0  0  0
   37.9499    0.3437    2.5617 H   0  0  0  0  0  0  0  0  0  0  0  0
   37.9077   -0.3888   -2.6110 H   0  0  0  0  0  0  0  0  0  0  0  0
   35.9990   -0.3153   -4.5141 H   0  0  0  0  0  0  0  0  0  0  0  0
   32.2115   -1.5913   -5.1423 H   0  0  0  0  0  0  0  0  0  0  0  0
   32.1922   -1.4516   -7.6194 H   0  0  0  0  0  0  0  0  0  0  0  0
   33.9456    1.3486  -10.6609 H   0  0  0  0  0  0  0  0  0  0  0  0
   34.5862    2.0964   -7.4394 H   0  0  0  0  0  0  0  0  0  0  0  0
   34.5987    1.9644   -4.9730 H   0  0  0  0  0  0  0  0  0  0  0  0
   30.7938    0.5454   -4.4317 H   0  0  0  0  0  0  0  0  0  0  0  0
   28.9216    0.3693   -2.4982 H   0  0  0  0  0  0  0  0  0  0  0  0
   32.9511   -2.2582    5.0038 H   0  0  0  0  0  0  0  0  0  0  0  0
   32.9654   -2.3400    7.4843 H   0  0  0  0  0  0  0  0  0  0  0  0
   33.7776    0.6216   10.7593 H   0  0  0  0  0  0  0  0  0  0  0  0
   34.0378    1.8055    7.6148 H   0  0  0  0  0  0  0  0  0  0  0  0
   34.0158    1.8907    5.1458 H   0  0  0  0  0  0  0  0  0  0  0  0
   65.4103   -0.0732   -0.0443 Fe  0  0  0  0  0  0  0  0  0  0  0  0
   68.7978   -0.1230   -0.0818 C   0  0  0  0  0  0  0  0  0  0  0  0
   68.1370   -0.1557   -1.2925 C   0  0  0  0  0  0  0  0  0  0  0  0
   68.8025   -0.2262   -2.5585 C   0  0  0  0  0  0  0  0  0  0  0  0
   67.8444   -0.1105   -3.5076 C   0  0  0  0  0  0  0  0  0  0  0  0
   66.5924    0.0230   -2.8198 C   0  0  0  0  0  0  0  0  0  0  0  0
   66.7842   -0.0234   -1.4653 N   0  0  0  0  0  0  0  0  0  0  0  0
   65.3821    0.2861   -3.4509 C   0  0  0  0  0  0  0  0  0  0  0  0
   64.1854    0.4263   -2.7623 C   0  0  0  0  0  0  0  0  0  0  0  0
   62.9229    0.6680   -3.3950 C   0  0  0  0  0  0  0  0  0  0  0  0
   61.9788    0.5900   -2.4268 C   0  0  0  0  0  0  0  0  0  0  0  0
   64.0127    0.2332   -1.4122 N   0  0  0  0  0  0  0  0  0  0  0  0
   62.6652    0.2963   -1.2077 C   0  0  0  0  0  0  0  0  0  0  0  0
   62.0059    0.0154   -0.0060 C   0  0  0  0  0  0  0  0  0  0  0  0
   62.6840   -0.2665    1.1848 C   0  0  0  0  0  0  0  0  0  0  0  0
   62.0206   -0.5723    2.4133 C   0  0  0  0  0  0  0  0  0  0  0  0
   62.9817   -0.6456    3.3657 C   0  0  0  0  0  0  0  0  0  0  0  0
   64.2299   -0.3802    2.7147 C   0  0  0  0  0  0  0  0  0  0  0  0
   65.4480   -0.2924    3.3759 C   0  0  0  0  0  0  0  0  0  0  0  0
   65.4605   -0.3976    4.8530 C   0  0  0  0  0  0  0  0  0  0  0  0
   66.1566   -1.4308    5.4858 C   0  0  0  0  0  0  0  0  0  0  0  0
   66.1661   -1.5223    6.8654 C   0  0  0  0  0  0  0  0  0  0  0  0
   65.4848   -0.5798    7.6379 C   0  0  0  0  0  0  0  0  0  0  0  0
   65.5291   -0.7170    9.1137 C   0  0  0  0  0  0  0  0  0  0  0  0
   64.8405    0.2344    9.7619 O   0  0  0  0  0  0  0  0  0  0  0  0
   66.1199   -1.5892    9.6981 O   0  0  0  0  0  0  0  0  0  0  0  0
   64.7889    0.4541    7.0107 C   0  0  0  0  0  0  0  0  0  0  0  0
   64.7755    0.5403    5.6296 C   0  0  0  0  0  0  0  0  0  0  0  0
   66.6557   -0.1182    2.7097 C   0  0  0  0  0  0  0  0  0  0  0  0
   67.9268   -0.0015    3.3648 C   0  0  0  0  0  0  0  0  0  0  0  0
   68.8669    0.0331    2.3914 C   0  0  0  0  0  0  0  0  0  0  0  0
   68.1691   -0.0454    1.1435 C   0  0  0  0  0  0  0  0  0  0  0  0
   66.8148   -0.0913    1.3500 N   0  0  0  0  0  0  0  0  0  0  0  0
   64.0337   -0.1853    1.3693 N   0  0  0  0  0  0  0  0  0  0  0  0
   65.3691    0.4091   -4.9285 C   0  0  0  0  0  0  0  0  0  0  0  0
   65.6507   -0.7018   -5.7273 C   0  0  0  0  0  0  0  0  0  0  0  0
   65.6378   -0.5900   -7.1054 C   0  0  0  0  0  0  0  0  0  0  0  0
   65.3493    0.6355   -7.7087 C   0  0  0  0  0  0  0  0  0  0  0  0
   65.3522    0.7057   -9.1898 C   0  0  0  0  0  0  0  0  0  0  0  0
   65.0738    1.9268   -9.6702 O   0  0  0  0  0  0  0  0  0  0  0  0
   65.5803   -0.2295   -9.9142 O   0  0  0  0  0  0  0  0  0  0  0  0
   65.0697    1.7478   -6.9144 C   0  0  0  0  0  0  0  0  0  0  0  0
   65.0771    1.6325   -5.5350 C   0  0  0  0  0  0  0  0  0  0  0  0
   69.8815   -0.1525   -0.0947 H   0  0  0  0  0  0  0  0  0  0  0  0
   69.8677   -0.3371   -2.6841 H   0  0  0  0  0  0  0  0  0  0  0  0
   67.9635   -0.1000   -4.5788 H   0  0  0  0  0  0  0  0  0  0  0  0
   62.7850    0.8527   -4.4478 H   0  0  0  0  0  0  0  0  0  0  0  0
   60.9106    0.7037   -2.5167 H   0  0  0  0  0  0  0  0  0  0  0  0
   60.9562   -0.7073    2.5184 H   0  0  0  0  0  0  0  0  0  0  0  0
   62.8670   -0.8678    4.4141 H   0  0  0  0  0  0  0  0  0  0  0  0
   66.6761   -2.1704    4.8872 H   0  0  0  0  0  0  0  0  0  0  0  0
   66.7000   -2.3242    7.3635 H   0  0  0  0  0  0  0  0  0  0  0  0
   64.9194    0.0750   10.7164 H   0  0  0  0  0  0  0  0  0  0  0  0
   64.2610    1.1892    7.6066 H   0  0  0  0  0  0  0  0  0  0  0  0
   64.2445    1.3500    5.1419 H   0  0  0  0  0  0  0  0  0  0  0  0
   68.0686    0.0475    4.4321 H   0  0  0  0  0  0  0  0  0  0  0  0
   69.9384    0.1051    2.4894 H   0  0  0  0  0  0  0  0  0  0  0  0
   65.8656   -1.6557   -5.2593 H   0  0  0  0  0  0  0  0  0  0  0  0
   65.8503   -1.4487   -7.7327 H   0  0  0  0  0  0  0  0  0  0  0  0
   65.0965    1.8881  -10.6402 H   0  0  0  0  0  0  0  0  0  0  0  0
   64.8480    2.7013   -7.3791 H   0  0  0  0  0  0  0  0  0  0  0  0
   64.8699    2.4986   -4.9168 H   0  0  0  0  0  0  0  0  0  0  0  0
   42.0563    0.0019   -0.0361 C   0  0  0  0  0  0  0  0  0  0  0  0
   40.8275    0.0005   -0.0381 C   0  0  0  0  0  0  0  0  0  0  0  0
   39.4830   -0.0015   -0.0336 C   0  0  0  0  0  0  0  0  0  0  0  0
   38.2589   -0.0031   -0.0262 C   0  0  0  0  0  0  0  0  0  0  0  0
   43.4005    0.0045   -0.0336 C   0  0  0  0  0  0  0  0  0  0  0  0
   44.6250    0.0054   -0.0272 C   0  0  0  0  0  0  0  0  0  0  0  0
   58.0344    0.0160    0.0156 C   0  0  0  0  0  0  0  0  0  0  0  0
   56.8052    0.0149    0.0170 C   0  0  0  0  0  0  0  0  0  0  0  0
   55.4619    0.0135    0.0152 C   0  0  0  0  0  0  0  0  0  0  0  0
   54.2371    0.0098    0.0171 C   0  0  0  0  0  0  0  0  0  0  0  0
   59.3779    0.0168    0.0118 C   0  0  0  0  0  0  0  0  0  0  0  0
   60.6025    0.0153    0.0044 C   0  0  0  0  0  0  0  0  0  0  0  0
   49.4318    0.0058   -0.0544 Fe  0  0  0  0  0  0  0  0  0  0  0  0
   46.0281    0.0062   -0.0197 C   0  0  0  0  0  0  0  0  0  0  0  0
   46.7036   -1.2036   -0.2218 C   0  0  0  0  0  0  0  0  0  0  0  0
   46.0508   -2.4473   -0.4846 C   0  0  0  0  0  0  0  0  0  0  0  0
   47.0072   -3.4071   -0.4307 C   0  0  0  0  0  0  0  0  0  0  0  0
   48.2397   -2.7451   -0.1240 C   0  0  0  0  0  0  0  0  0  0  0  0
   48.0445   -1.3885   -0.0513 N   0  0  0  0  0  0  0  0  0  0  0  0
   49.4340   -3.3958    0.1654 C   0  0  0  0  0  0  0  0  0  0  0  0
   50.6252   -2.7168    0.3948 C   0  0  0  0  0  0  0  0  0  0  0  0
   51.8603   -3.3459    0.7561 C   0  0  0  0  0  0  0  0  0  0  0  0
   52.8151   -2.3843    0.7152 C   0  0  0  0  0  0  0  0  0  0  0  0
   50.8154   -1.3694    0.2101 N   0  0  0  0  0  0  0  0  0  0  0  0
   52.1590   -1.1715    0.3403 C   0  0  0  0  0  0  0  0  0  0  0  0
   52.8350    0.0105    0.0140 C   0  0  0  0  0  0  0  0  0  0  0  0
   52.1621    1.1929   -0.3191 C   0  0  0  0  0  0  0  0  0  0  0  0
   52.8184    2.4038   -0.6997 C   0  0  0  0  0  0  0  0  0  0  0  0
   51.8626    3.3645   -0.7492 C   0  0  0  0  0  0  0  0  0  0  0  0
   50.6268    2.7365   -0.3889 C   0  0  0  0  0  0  0  0  0  0  0  0
   49.4307    3.4125   -0.1764 C   0  0  0  0  0  0  0  0  0  0  0  0
   49.4299    4.8902   -0.2543 C   0  0  0  0  0  0  0  0  0  0  0  0
   50.2445    5.6421    0.5968 C   0  0  0  0  0  0  0  0  0  0  0  0
   50.2400    7.0228    0.5264 C   0  0  0  0  0  0  0  0  0  0  0  0
   49.4268    7.6773   -0.4007 C   0  0  0  0  0  0  0  0  0  0  0  0
   49.4589    9.1595   -0.4396 C   0  0  0  0  0  0  0  0  0  0  0  0
   48.6428    9.6897   -1.3626 O   0  0  0  0  0  0  0  0  0  0  0  0
   50.1433    9.8434    0.2781 O   0  0  0  0  0  0  0  0  0  0  0  0
   48.6153    6.9311   -1.2557 C   0  0  0  0  0  0  0  0  0  0  0  0
   48.6158    5.5494   -1.1790 C   0  0  0  0  0  0  0  0  0  0  0  0
   48.2357    2.7593    0.1044 C   0  0  0  0  0  0  0  0  0  0  0  0
   46.9974    3.4213    0.3870 C   0  0  0  0  0  0  0  0  0  0  0  0
   46.0420    2.4603    0.4320 C   0  0  0  0  0  0  0  0  0  0  0  0
   46.7009    1.2159    0.1883 C   0  0  0  0  0  0  0  0  0  0  0  0
   48.0465    1.4004    0.0532 N   0  0  0  0  0  0  0  0  0  0  0  0
   50.8202    1.3937   -0.1799 N   0  0  0  0  0  0  0  0  0  0  0  0
   49.4391   -4.8743    0.2245 C   0  0  0  0  0  0  0  0  0  0  0  0
   48.6192   -5.5500    1.1324 C   0  0  0  0  0  0  0  0  0  0  0  0
   48.6274   -6.9317    1.1845 C   0  0  0  0  0  0  0  0  0  0  0  0
   49.4493   -7.6633    0.3252 C   0  0  0  0  0  0  0  0  0  0  0  0
   49.4182   -9.1435    0.4145 C   0  0  0  0  0  0  0  0  0  0  0  0
   50.2408   -9.7503   -0.4538 O   0  0  0  0  0  0  0  0  0  0  0  0
   48.7290   -9.7635    1.1836 O   0  0  0  0  0  0  0  0  0  0  0  0
   50.2676   -6.9935   -0.5849 C   0  0  0  0  0  0  0  0  0  0  0  0
   50.2635   -5.6105   -0.6304 C   0  0  0  0  0  0  0  0  0  0  0  0
   44.9963   -2.5577   -0.6793 H   0  0  0  0  0  0  0  0  0  0  0  0
   46.8973   -4.4680   -0.5862 H   0  0  0  0  0  0  0  0  0  0  0  0
   51.9729   -4.3881    1.0068 H   0  0  0  0  0  0  0  0  0  0  0  0
   53.8715   -2.4748    0.9108 H   0  0  0  0  0  0  0  0  0  0  0  0
   53.8747    2.4940   -0.8952 H   0  0  0  0  0  0  0  0  0  0  0  0
   51.9749    4.4046   -1.0087 H   0  0  0  0  0  0  0  0  0  0  0  0
   50.8671    5.1357    1.3255 H   0  0  0  0  0  0  0  0  0  0  0  0
   50.8643    7.6130    1.1882 H   0  0  0  0  0  0  0  0  0  0  0  0
   48.7216   10.6568   -1.3241 H   0  0  0  0  0  0  0  0  0  0  0  0
   47.9860    7.4351   -1.9797 H   0  0  0  0  0  0  0  0  0  0  0  0
   47.9944    4.9689   -1.8516 H   0  0  0  0  0  0  0  0  0  0  0  0
   46.8828    4.4833    0.5307 H   0  0  0  0  0  0  0  0  0  0  0  0
   44.9838    2.5701    0.6062 H   0  0  0  0  0  0  0  0  0  0  0  0
   47.9894   -4.9830    1.8084 H   0  0  0  0  0  0  0  0  0  0  0  0
   47.9989   -7.4629    1.8907 H   0  0  0  0  0  0  0  0  0  0  0  0
   50.1618  -10.7107   -0.3335 H   0  0  0  0  0  0  0  0  0  0  0  0
   50.9042   -7.5577   -1.2560 H   0  0  0  0  0  0  0  0  0  0  0  0
   50.8898   -5.0897   -1.3460 H   0  0  0  0  0  0  0  0  0  0  0  0
  2  3  4  0  0  0  0
  3  4  4  0  0  0  0
  4  5  2  0  0  0  0
  5  6  4  0  0  0  0
  1  7  1  0  0  0  0
  3  7  4  0  0  0  0
  6  7  4  0  0  0  0
  6  8  4  0  0  0  0
  8  9  4  0  0  0  0
  9 10  4  0  0  0  0
 10 11  2  0  0  0  0
  1 12  1  0  0  0  0
  9 12  4  0  0  0  0
 11 13  4  0  0  0  0
 12 13  4  0  0  0  0
 13 14  4  0  0  0  0
 14 15  4  0  0  0  0
 15 16  4  0  0  0  0
 16 17  2  0  0  0  0
 17 18  4  0  0  0  0
 18 19  4  0  0  0  0
 19 20  1  0  0  0  0
 20 21  4  0  0  0  0
 21 22  4  0  0  0  0
 22 23  4  0  0  0  0
 23 24  1  0  0  0  0
 24 25  4  0  0  0  0
 24 26  2  0  0  0  0
 23 27  4  0  0  0  0
 20 28  4  0  0  0  0
 27 28  4  0  0  0  0
 19 29  4  0  0  0  0
 29 30  4  0  0  0  0
 30 31  2  0  0  0  0
  2 32  4  0  0  0  0
 31 32  4  0  0  0  0
  1 33  1  0  0  0  0
 29 33  4  0  0  0  0
 32 33  4  0  0  0  0
  1 34  1  0  0  0  0
 15 34  4  0  0  0  0
 18 34  4  0  0  0  0
  8 35  1  0  0  0  0
 35 36  4  0  0  0  0
 36 37  4  0  0  0  0
 37 38  4  0  0  0  0
 38 39  1  0  0  0  0
 39 40  4  0  0  0  0
 39 41  2  0  0  0  0
 38 42  4  0  0  0  0
 35 43  4  0  0  0  0
 42 43  4  0  0  0  0
  2 44  1  0  0  0  0
  4 45  1  0  0  0  0
  5 46  1  0  0  0  0
 10 47  1  0  0  0  0
 11 48  1  0  0  0  0
 16 49  1  0  0  0  0
 17 50  1  0  0  0  0
 21 51  1  0  0  0  0
 22 52  1  0  0  0  0
 25 53  1  0  0  0  0
 27 54  1  0  0  0  0
 28 55  1  0  0  0  0
 30 56  1  0  0  0  0
 31 57  1  0  0  0  0
 36 58  1  0  0  0  0
 37 59  1  0  0  0  0
 40 60  1  0  0  0  0
 42 61  1  0  0  0  0
 43 62  1  0  0  0  0
 64 65  4  0  0  0  0
 65 66  4  0  0  0  0
 66 67  2  0  0  0  0
 67 68  4  0  0  0  0
 63 69  1  0  0  0  0
 65 69  4  0  0  0  0
 68 69  4  0  0  0  0
 68 70  4  0  0  0  0
 70 71  4  0  0  0  0
 71 72  4  0  0  0  0
 72 73  2  0  0  0  0
 63 74  1  0  0  0  0
 71 74  4  0  0  0  0
 73 75  4  0  0  0  0
 74 75  4  0  0  0  0
 75 76  4  0  0  0  0
 76 77  4  0  0  0  0
 77 78  4  0  0  0  0
 78 79  2  0  0  0  0
 79 80  4  0  0  0  0
 80 81  4  0  0  0  0
 81 82  1  0  0  0  0
 82 83  4  0  0  0  0
 83 84  4  0  0  0  0
 84 85  4  0  0  0  0
 85 86  1  0  0  0  0
 86 87  4  0  0  0  0
 86 88  2  0  0  0  0
 85 89  4  0  0  0  0
 82 90  4  0  0  0  0
 89 90  4  0  0  0  0
 81 91  4  0  0  0  0
 91 92  4  0  0  0  0
 92 93  2  0  0  0  0
 64 94  4  0  0  0  0
 93 94  4  0  0  0  0
 63 95  1  0  0  0  0
 91 95  4  0  0  0  0
 94 95  4  0  0  0  0
 63 96  1  0  0  0  0
 77 96  4  0  0  0  0
 80 96  4  0  0  0  0
 70 97  1  0  0  0  0
 97 98  4  0  0  0  0
 98 99  4  0  0  0  0
 99100  4  0  0  0  0
100101  1  0  0  0  0
101102  4  0  0  0  0
101103  2  0  0  0  0
100104  4  0  0  0  0
 97105  4  0  0  0  0
104105  4  0  0  0  0
 64106  1  0  0  0  0
 66107  1  0  0  0  0
 67108  1  0  0  0  0
 72109  1  0  0  0  0
 73110  1  0  0  0  0
 78111  1  0  0  0  0
 79112  1  0  0  0  0
 83113  1  0  0  0  0
 84114  1  0  0  0  0
 87115  1  0  0  0  0
 89116  1  0  0  0  0
 90117  1  0  0  0  0
 92118  1  0  0  0  0
 93119  1  0  0  0  0
 98120  1  0  0  0  0
 99121  1  0  0  0  0
102122  1  0  0  0  0
104123  1  0  0  0  0
105124  1  0  0  0  0
125126  3  0  0  0  0
126127  4  0  0  0  0
 14128  4  0  0  0  0
127128  3  0  0  0  0
125129  4  0  0  0  0
129130  3  0  0  0  0
131132  3  0  0  0  0
132133  4  0  0  0  0
133134  3  0  0  0  0
131135  4  0  0  0  0
 76136  4  0  0  0  0
135136  3  0  0  0  0
130138  4  0  0  0  0
138139  4  0  0  0  0
139140  4  0  0  0  0
140141  2  0  0  0  0
141142  4  0  0  0  0
137143  1  0  0  0  0
139143  4  0  0  0  0
142143  4  0  0  0  0
142144  4  0  0  0  0
144145  4  0  0  0  0
145146  4  0  0  0  0
146147  2  0  0  0  0
137148  1  0  0  0  0
145148  4  0  0  0  0
147149  4  0  0  0  0
148149  4  0  0  0  0
134150  4  0  0  0  0
149150  4  0  0  0  0
150151  4  0  0  0  0
151152  4  0  0  0  0
152153  2  0  0  0  0
153154  4  0  0  0  0
154155  4  0  0  0  0
155156  1  0  0  0  0
156157  4  0  0  0  0
157158  4  0  0  0  0
158159  4  0  0  0  0
159160  1  0  0  0  0
160161  4  0  0  0  0
160162  2  0  0  0  0
159163  4  0  0  0  0
156164  4  0  0  0  0
163164  4  0  0  0  0
155165  4  0  0  0  0
165166  4  0  0  0  0
166167  2  0  0  0  0
138168  4  0  0  0  0
167168  4  0  0  0  0
137169  1  0  0  0  0
165169  4  0  0  0  0
168169  4  0  0  0  0
137170  1  0  0  0  0
151170  4  0  0  0  0
154170  4  0  0  0  0
144171  1  0  0  0  0
171172  4  0  0  0  0
172173  4  0  0  0  0
173174  4  0  0  0  0
174175  1  0  0  0  0
175176  4  0  0  0  0
175177  2  0  0  0  0
174178  4  0  0  0  0
171179  4  0  0  0  0
178179  4  0  0  0  0
140180  1  0  0  0  0
141181  1  0  0  0  0
146182  1  0  0  0  0
147183  1  0  0  0  0
152184  1  0  0  0  0
153185  1  0  0  0  0
157186  1  0  0  0  0
158187  1  0  0  0  0
161188  1  0  0  0  0
163189  1  0  0  0  0
164190  1  0  0  0  0
166191  1  0  0  0  0
167192  1  0  0  0  0
172193  1  0  0  0  0
173194  1  0  0  0  0
176195  1  0  0  0  0
178196  1  0  0  0  0
179197  1  0  0  0  0
M  END
