 xtb: 6.5.1 (b24c23e)
          07302206553D

111134  0     0  0            999 V2000
   18.6781   -0.0279   -0.0189 Zn  0  0  0  0  0  0  0  0  0  0  0  0
   15.2479   -0.0398   -0.0362 C   0  0  0  0  0  0  0  0  0  0  0  0
   15.8798   -0.8390   -0.9826 C   0  0  0  0  0  0  0  0  0  0  0  0
   15.2153   -1.6622   -1.9578 C   0  0  0  0  0  0  0  0  0  0  0  0
   16.1815   -2.2714   -2.6897 C   0  0  0  0  0  0  0  0  0  0  0  0
   17.4474   -1.8281   -2.1696 C   0  0  0  0  0  0  0  0  0  0  0  0
   17.2292   -0.9640   -1.1373 N   0  0  0  0  0  0  0  0  0  0  0  0
   18.6957   -2.2128   -2.6457 C   0  0  0  0  0  0  0  0  0  0  0  0
   19.9360   -1.8061   -2.1680 C   0  0  0  0  0  0  0  0  0  0  0  0
   21.2032   -2.2196   -2.7019 C   0  0  0  0  0  0  0  0  0  0  0  0
   22.1634   -1.6054   -1.9644 C   0  0  0  0  0  0  0  0  0  0  0  0
   20.1494   -0.9521   -1.1200 N   0  0  0  0  0  0  0  0  0  0  0  0
   21.4938   -0.8149   -0.9705 C   0  0  0  0  0  0  0  0  0  0  0  0
   22.1357   -0.0195    0.0009 C   0  0  0  0  0  0  0  0  0  0  0  0
   21.4792    0.7738    0.9641 C   0  0  0  0  0  0  0  0  0  0  0  0
   22.1337    1.5685    1.9647 C   0  0  0  0  0  0  0  0  0  0  0  0
   21.1622    2.1793    2.6900 C   0  0  0  0  0  0  0  0  0  0  0  0
   19.9031    1.7592    2.1422 C   0  0  0  0  0  0  0  0  0  0  0  0
   20.1326    0.9048    1.0979 N   0  0  0  0  0  0  0  0  0  0  0  0
   18.6552    2.1599    2.6049 C   0  0  0  0  0  0  0  0  0  0  0  0
   17.4144    1.7666    2.1161 C   0  0  0  0  0  0  0  0  0  0  0  0
   16.1405    2.2019    2.6230 C   0  0  0  0  0  0  0  0  0  0  0  0
   15.1857    1.5842    1.8832 C   0  0  0  0  0  0  0  0  0  0  0  0
   15.8654    0.7645    0.9156 C   0  0  0  0  0  0  0  0  0  0  0  0
   17.2123    0.8992    1.0831 N   0  0  0  0  0  0  0  0  0  0  0  0
   14.1624   -0.0437   -0.0411 H   0  0  0  0  0  0  0  0  0  0  0  0
   14.1448   -1.7525   -2.0585 H   0  0  0  0  0  0  0  0  0  0  0  0
   16.0621   -2.9614   -3.5106 H   0  0  0  0  0  0  0  0  0  0  0  0
   18.7036   -2.9040   -3.4830 H   0  0  0  0  0  0  0  0  0  0  0  0
   21.3307   -2.8915   -3.5362 H   0  0  0  0  0  0  0  0  0  0  0  0
   23.2330   -1.6716   -2.0820 H   0  0  0  0  0  0  0  0  0  0  0  0
   23.2018    1.6400    2.0937 H   0  0  0  0  0  0  0  0  0  0  0  0
   21.2768    2.8528    3.5250 H   0  0  0  0  0  0  0  0  0  0  0  0
   18.6496    2.8527    3.4409 H   0  0  0  0  0  0  0  0  0  0  0  0
   16.0082    2.8926    3.4413 H   0  0  0  0  0  0  0  0  0  0  0  0
   14.1136    1.6668    1.9735 H   0  0  0  0  0  0  0  0  0  0  0  0
   40.5932    0.0099   -0.0124 Zn  0  0  0  0  0  0  0  0  0  0  0  0
   44.0227    0.0252    0.0154 C   0  0  0  0  0  0  0  0  0  0  0  0
   43.3920    1.2601    0.1211 C   0  0  0  0  0  0  0  0  0  0  0  0
   44.0578    2.5301    0.2398 C   0  0  0  0  0  0  0  0  0  0  0  0
   43.0925    3.4806    0.3126 C   0  0  0  0  0  0  0  0  0  0  0  0
   41.8261    2.8023    0.2401 C   0  0  0  0  0  0  0  0  0  0  0  0
   42.0429    1.4607    0.1255 N   0  0  0  0  0  0  0  0  0  0  0  0
   40.5785    3.4149    0.2768 C   0  0  0  0  0  0  0  0  0  0  0  0
   39.3375    2.7921    0.2110 C   0  0  0  0  0  0  0  0  0  0  0  0
   38.0707    3.4675    0.2415 C   0  0  0  0  0  0  0  0  0  0  0  0
   37.1099    2.5124    0.1547 C   0  0  0  0  0  0  0  0  0  0  0  0
   39.1234    1.4444    0.1066 N   0  0  0  0  0  0  0  0  0  0  0  0
   37.7790    1.2447    0.0740 C   0  0  0  0  0  0  0  0  0  0  0  0
   37.1367   -0.0059   -0.0318 C   0  0  0  0  0  0  0  0  0  0  0  0
   37.7912   -1.2503   -0.1343 C   0  0  0  0  0  0  0  0  0  0  0  0
   37.1345   -2.5238   -0.2260 C   0  0  0  0  0  0  0  0  0  0  0  0
   38.1050   -3.4698   -0.3050 C   0  0  0  0  0  0  0  0  0  0  0  0
   39.3652   -2.7830   -0.2577 C   0  0  0  0  0  0  0  0  0  0  0  0
   39.1376   -1.4376   -0.1527 N   0  0  0  0  0  0  0  0  0  0  0  0
   40.6127   -3.3941   -0.3079 C   0  0  0  0  0  0  0  0  0  0  0  0
   41.8540   -2.7703   -0.2506 C   0  0  0  0  0  0  0  0  0  0  0  0
   43.1274   -3.4373   -0.3034 C   0  0  0  0  0  0  0  0  0  0  0  0
   44.0830   -2.4787   -0.2117 C   0  0  0  0  0  0  0  0  0  0  0  0
   43.4043   -1.2148   -0.1019 C   0  0  0  0  0  0  0  0  0  0  0  0
   42.0572   -1.4271   -0.1295 N   0  0  0  0  0  0  0  0  0  0  0  0
   45.1083    0.0297    0.0249 H   0  0  0  0  0  0  0  0  0  0  0  0
   45.1284    2.6627    0.2627 H   0  0  0  0  0  0  0  0  0  0  0  0
   43.2131    4.5487    0.4074 H   0  0  0  0  0  0  0  0  0  0  0  0
   40.5717    4.4971    0.3647 H   0  0  0  0  0  0  0  0  0  0  0  0
   37.9440    4.5362    0.3169 H   0  0  0  0  0  0  0  0  0  0  0  0
   36.0402    2.6471    0.1389 H   0  0  0  0  0  0  0  0  0  0  0  0
   36.0659   -2.6680   -0.2237 H   0  0  0  0  0  0  0  0  0  0  0  0
   37.9890   -4.5394   -0.3850 H   0  0  0  0  0  0  0  0  0  0  0  0
   40.6174   -4.4760   -0.3986 H   0  0  0  0  0  0  0  0  0  0  0  0
   43.2589   -4.5040   -0.3986 H   0  0  0  0  0  0  0  0  0  0  0  0
   45.1549   -2.6020   -0.2165 H   0  0  0  0  0  0  0  0  0  0  0  0
   23.5457   -0.0176    0.0091 C   0  0  0  0  0  0  0  0  0  0  0  0
   24.7630   -0.0194    0.0123 C   0  0  0  0  0  0  0  0  0  0  0  0
   34.5094   -0.0172   -0.0314 C   0  0  0  0  0  0  0  0  0  0  0  0
   35.7266   -0.0121   -0.0330 C   0  0  0  0  0  0  0  0  0  0  0  0
   29.6365   -0.0206   -0.0046 Zn  0  0  0  0  0  0  0  0  0  0  0  0
   26.1727   -0.0205    0.0124 C   0  0  0  0  0  0  0  0  0  0  0  0
   26.8257    1.0812    0.6022 C   0  0  0  0  0  0  0  0  0  0  0  0
   26.1679    2.2124    1.1917 C   0  0  0  0  0  0  0  0  0  0  0  0
   27.1373    3.0459    1.6492 C   0  0  0  0  0  0  0  0  0  0  0  0
   28.3973    2.4331    1.3376 C   0  0  0  0  0  0  0  0  0  0  0  0
   28.1719    1.2432    0.7003 N   0  0  0  0  0  0  0  0  0  0  0  0
   29.6443    2.9662    1.6407 C   0  0  0  0  0  0  0  0  0  0  0  0
   30.8883    2.4203    1.3484 C   0  0  0  0  0  0  0  0  0  0  0  0
   32.1516    3.0060    1.6963 C   0  0  0  0  0  0  0  0  0  0  0  0
   33.1165    2.1712    1.2317 C   0  0  0  0  0  0  0  0  0  0  0  0
   31.1070    1.2454    0.6816 N   0  0  0  0  0  0  0  0  0  0  0  0
   32.4522    1.0712    0.5923 C   0  0  0  0  0  0  0  0  0  0  0  0
   33.0998   -0.0188   -0.0246 C   0  0  0  0  0  0  0  0  0  0  0  0
   32.4471   -1.1098   -0.6337 C   0  0  0  0  0  0  0  0  0  0  0  0
   33.1054   -2.2099   -1.2794 C   0  0  0  0  0  0  0  0  0  0  0  0
   32.1361   -3.0464   -1.7317 C   0  0  0  0  0  0  0  0  0  0  0  0
   30.8762   -2.4618   -1.3698 C   0  0  0  0  0  0  0  0  0  0  0  0
   31.1012   -1.2857   -0.7074 N   0  0  0  0  0  0  0  0  0  0  0  0
   29.6293   -3.0096   -1.6456 C   0  0  0  0  0  0  0  0  0  0  0  0
   28.3856   -2.4771   -1.3283 C   0  0  0  0  0  0  0  0  0  0  0  0
   27.1229   -3.0920   -1.6234 C   0  0  0  0  0  0  0  0  0  0  0  0
   26.1580   -2.2575   -1.1584 C   0  0  0  0  0  0  0  0  0  0  0  0
   26.8213   -1.1237   -0.5800 C   0  0  0  0  0  0  0  0  0  0  0  0
   28.1664   -1.2856   -0.6917 N   0  0  0  0  0  0  0  0  0  0  0  0
   25.0994    2.3477    1.2411 H   0  0  0  0  0  0  0  0  0  0  0  0
   27.0203    3.9939    2.1506 H   0  0  0  0  0  0  0  0  0  0  0  0
   29.6470    3.9170    2.1651 H   0  0  0  0  0  0  0  0  0  0  0  0
   32.2739    3.9352    2.2306 H   0  0  0  0  0  0  0  0  0  0  0  0
   34.1857    2.2808    1.3166 H   0  0  0  0  0  0  0  0  0  0  0  0
   34.1738   -2.3185   -1.3758 H   0  0  0  0  0  0  0  0  0  0  0  0
   32.2531   -3.9762   -2.2662 H   0  0  0  0  0  0  0  0  0  0  0  0
   29.6263   -3.9616   -2.1681 H   0  0  0  0  0  0  0  0  0  0  0  0
   27.0008   -4.0420   -2.1198 H   0  0  0  0  0  0  0  0  0  0  0  0
   25.0893   -2.3947   -1.1940 H   0  0  0  0  0  0  0  0  0  0  0  0
  2  3  4  0  0  0  0
  3  4  1  0  0  0  0
  4  5  2  0  0  0  0
  5  6  1  0  0  0  0
  1  7  1  0  0  0  0
  3  7  4  0  0  0  0
  6  7  4  0  0  0  0
  6  8  4  0  0  0  0
  8  9  4  0  0  0  0
  9 10  4  0  0  0  0
 10 11  2  0  0  0  0
  1 12  1  0  0  0  0
  9 12  4  0  0  0  0
 11 13  4  0  0  0  0
 12 13  4  0  0  0  0
 13 14  4  0  0  0  0
 14 15  4  0  0  0  0
 15 16  4  0  0  0  0
 16 17  2  0  0  0  0
 17 18  4  0  0  0  0
  1 19  1  0  0  0  0
 15 19  4  0  0  0  0
 18 19  4  0  0  0  0
 18 20  4  0  0  0  0
 20 21  4  0  0  0  0
 21 22  1  0  0  0  0
 22 23  2  0  0  0  0
  2 24  4  0  0  0  0
 23 24  1  0  0  0  0
  1 25  1  0  0  0  0
 21 25  4  0  0  0  0
 24 25  4  0  0  0  0
  2 26  1  0  0  0  0
  4 27  1  0  0  0  0
  5 28  1  0  0  0  0
  8 29  1  0  0  0  0
 10 30  1  0  0  0  0
 11 31  1  0  0  0  0
 16 32  1  0  0  0  0
 17 33  1  0  0  0  0
 20 34  1  0  0  0  0
 22 35  1  0  0  0  0
 23 36  1  0  0  0  0
 38 39  4  0  0  0  0
 39 40  1  0  0  0  0
 40 41  2  0  0  0  0
 41 42  1  0  0  0  0
 37 43  1  0  0  0  0
 39 43  4  0  0  0  0
 42 43  4  0  0  0  0
 42 44  4  0  0  0  0
 44 45  4  0  0  0  0
 45 46  4  0  0  0  0
 46 47  2  0  0  0  0
 37 48  1  0  0  0  0
 45 48  4  0  0  0  0
 47 49  4  0  0  0  0
 48 49  4  0  0  0  0
 49 50  4  0  0  0  0
 50 51  4  0  0  0  0
 51 52  4  0  0  0  0
 52 53  2  0  0  0  0
 53 54  4  0  0  0  0
 37 55  1  0  0  0  0
 51 55  4  0  0  0  0
 54 55  4  0  0  0  0
 54 56  4  0  0  0  0
 56 57  4  0  0  0  0
 57 58  1  0  0  0  0
 58 59  2  0  0  0  0
 38 60  4  0  0  0  0
 59 60  1  0  0  0  0
 37 61  1  0  0  0  0
 57 61  4  0  0  0  0
 60 61  4  0  0  0  0
 38 62  1  0  0  0  0
 40 63  1  0  0  0  0
 41 64  1  0  0  0  0
 44 65  1  0  0  0  0
 46 66  1  0  0  0  0
 47 67  1  0  0  0  0
 52 68  1  0  0  0  0
 53 69  1  0  0  0  0
 56 70  1  0  0  0  0
 58 71  1  0  0  0  0
 59 72  1  0  0  0  0
 14 73  4  0  0  0  0
 73 74  3  0  0  0  0
 50 76  4  0  0  0  0
 75 76  3  0  0  0  0
 74 78  4  0  0  0  0
 78 79  4  0  0  0  0
 79 80  4  0  0  0  0
 80 81  2  0  0  0  0
 81 82  4  0  0  0  0
 77 83  1  0  0  0  0
 79 83  4  0  0  0  0
 82 83  4  0  0  0  0
 82 84  4  0  0  0  0
 84 85  4  0  0  0  0
 85 86  4  0  0  0  0
 86 87  2  0  0  0  0
 77 88  1  0  0  0  0
 85 88  4  0  0  0  0
 87 89  4  0  0  0  0
 88 89  4  0  0  0  0
 75 90  4  0  0  0  0
 89 90  4  0  0  0  0
 90 91  4  0  0  0  0
 91 92  4  0  0  0  0
 92 93  2  0  0  0  0
 93 94  4  0  0  0  0
 77 95  1  0  0  0  0
 91 95  4  0  0  0  0
 94 95  4  0  0  0  0
 94 96  4  0  0  0  0
 96 97  4  0  0  0  0
 97 98  4  0  0  0  0
 98 99  2  0  0  0  0
 78100  4  0  0  0  0
 99100  4  0  0  0  0
 77101  1  0  0  0  0
 97101  4  0  0  0  0
100101  4  0  0  0  0
 80102  1  0  0  0  0
 81103  1  0  0  0  0
 84104  1  0  0  0  0
 86105  1  0  0  0  0
 87106  1  0  0  0  0
 92107  1  0  0  0  0
 93108  1  0  0  0  0
 96109  1  0  0  0  0
 98110  1  0  0  0  0
 99111  1  0  0  0  0
M  END
