 xtb: 6.5.1 (b24c23e)
          07292217113D

209238  0     0  0            999 V2000
   33.5223    0.0474   -0.0290 Fe  0  0  0  0  0  0  0  0  0  0  0  0
   30.1432    0.1485   -0.1357 C   0  0  0  0  0  0  0  0  0  0  0  0
   30.7815    0.9002    0.8301 C   0  0  0  0  0  0  0  0  0  0  0  0
   30.0994    1.6825    1.8156 C   0  0  0  0  0  0  0  0  0  0  0  0
   31.0509    2.3698    2.4921 C   0  0  0  0  0  0  0  0  0  0  0  0
   32.3122    2.0199    1.9055 C   0  0  0  0  0  0  0  0  0  0  0  0
   32.1368    1.0799    0.9270 N   0  0  0  0  0  0  0  0  0  0  0  0
   33.5247    2.6200    2.2380 C   0  0  0  0  0  0  0  0  0  0  0  0
   33.5283    3.7265    3.2179 C   0  0  0  0  0  0  0  0  0  0  0  0
   32.7619    4.8766    3.0052 C   0  0  0  0  0  0  0  0  0  0  0  0
   32.7763    5.9145    3.9169 C   0  0  0  0  0  0  0  0  0  0  0  0
   33.5530    5.8301    5.0797 C   0  0  0  0  0  0  0  0  0  0  0  0
   33.4916    6.8709    5.9920 N   0  0  0  0  0  0  0  0  0  0  0  0
   34.5799    7.0694    6.9395 C   0  0  0  0  0  0  0  0  0  0  0  0
   34.3075    4.6748    5.3063 C   0  0  0  0  0  0  0  0  0  0  0  0
   34.2991    3.6467    4.3800 C   0  0  0  0  0  0  0  0  0  0  0  0
   34.7322    2.2210    1.6777 C   0  0  0  0  0  0  0  0  0  0  0  0
   35.9875    2.8646    1.9276 C   0  0  0  0  0  0  0  0  0  0  0  0
   36.9383    2.1233    1.3076 C   0  0  0  0  0  0  0  0  0  0  0  0
   34.9139    1.1284    0.8642 N   0  0  0  0  0  0  0  0  0  0  0  0
   36.2605    1.0367    0.6741 C   0  0  0  0  0  0  0  0  0  0  0  0
   36.9234   -0.0253    0.0443 C   0  0  0  0  0  0  0  0  0  0  0  0
   36.2442   -1.0667   -0.6025 C   0  0  0  0  0  0  0  0  0  0  0  0
   36.9016   -2.1900   -1.1918 C   0  0  0  0  0  0  0  0  0  0  0  0
   35.9454   -2.9067   -1.8323 C   0  0  0  0  0  0  0  0  0  0  0  0
   34.7089   -2.2078   -1.6451 C   0  0  0  0  0  0  0  0  0  0  0  0
   34.9034   -1.1086   -0.8427 N   0  0  0  0  0  0  0  0  0  0  0  0
   33.5121   -2.5588   -2.2572 C   0  0  0  0  0  0  0  0  0  0  0  0
   33.5036   -3.6860   -3.2133 C   0  0  0  0  0  0  0  0  0  0  0  0
   34.3315   -3.6767   -4.3381 C   0  0  0  0  0  0  0  0  0  0  0  0
   34.3245   -4.7252   -5.2414 C   0  0  0  0  0  0  0  0  0  0  0  0
   33.4950   -5.8304   -5.0280 C   0  0  0  0  0  0  0  0  0  0  0  0
   33.4164   -6.8868   -5.9210 N   0  0  0  0  0  0  0  0  0  0  0  0
   34.5362   -7.1712   -6.8079 C   0  0  0  0  0  0  0  0  0  0  0  0
   32.6605   -5.8437   -3.9029 C   0  0  0  0  0  0  0  0  0  0  0  0
   32.6626   -4.7856   -3.0148 C   0  0  0  0  0  0  0  0  0  0  0  0
   32.3184   -1.8851   -2.0062 C   0  0  0  0  0  0  0  0  0  0  0  0
   31.0782   -2.1675   -2.6692 C   0  0  0  0  0  0  0  0  0  0  0  0
   30.1311   -1.4055   -2.0712 C   0  0  0  0  0  0  0  0  0  0  0  0
   30.7955   -0.6499   -1.0533 C   0  0  0  0  0  0  0  0  0  0  0  0
   32.1400   -0.9175   -1.0561 N   0  0  0  0  0  0  0  0  0  0  0  0
   29.0601    0.1834   -0.1725 H   0  0  0  0  0  0  0  0  0  0  0  0
   29.0304    1.6908    1.9585 H   0  0  0  0  0  0  0  0  0  0  0  0
   30.9212    3.0503    3.3180 H   0  0  0  0  0  0  0  0  0  0  0  0
   32.1713    4.9653    2.0999 H   0  0  0  0  0  0  0  0  0  0  0  0
   32.1855    6.8059    3.7341 H   0  0  0  0  0  0  0  0  0  0  0  0
   33.1713    7.7388    5.5802 H   0  0  0  0  0  0  0  0  0  0  0  0
   35.5513    7.1124    6.4339 H   0  0  0  0  0  0  0  0  0  0  0  0
   34.5915    6.2598    7.6705 H   0  0  0  0  0  0  0  0  0  0  0  0
   34.4038    8.0092    7.4626 H   0  0  0  0  0  0  0  0  0  0  0  0
   34.9013    4.5715    6.2062 H   0  0  0  0  0  0  0  0  0  0  0  0
   34.8813    2.7519    4.5719 H   0  0  0  0  0  0  0  0  0  0  0  0
   36.1158    3.7710    2.4965 H   0  0  0  0  0  0  0  0  0  0  0  0
   38.0039    2.2847    1.2758 H   0  0  0  0  0  0  0  0  0  0  0  0
   37.9579   -2.3925   -1.1159 H   0  0  0  0  0  0  0  0  0  0  0  0
   36.0584   -3.8290   -2.3785 H   0  0  0  0  0  0  0  0  0  0  0  0
   34.9717   -2.8204   -4.5209 H   0  0  0  0  0  0  0  0  0  0  0  0
   34.9646   -4.6764   -6.1137 H   0  0  0  0  0  0  0  0  0  0  0  0
   33.0255   -7.7247   -5.5077 H   0  0  0  0  0  0  0  0  0  0  0  0
   34.6328   -6.3808   -7.5535 H   0  0  0  0  0  0  0  0  0  0  0  0
   34.3298   -8.1108   -7.3203 H   0  0  0  0  0  0  0  0  0  0  0  0
   35.4770   -7.2601   -6.2528 H   0  0  0  0  0  0  0  0  0  0  0  0
   32.0109   -6.6955   -3.7310 H   0  0  0  0  0  0  0  0  0  0  0  0
   32.0247   -4.8186   -2.1384 H   0  0  0  0  0  0  0  0  0  0  0  0
   30.9596   -2.8561   -3.4901 H   0  0  0  0  0  0  0  0  0  0  0  0
   29.0756   -1.3484   -2.2859 H   0  0  0  0  0  0  0  0  0  0  0  0
   65.4633    0.0340   -0.0636 Fe  0  0  0  0  0  0  0  0  0  0  0  0
   68.8449    0.0906   -0.1445 C   0  0  0  0  0  0  0  0  0  0  0  0
   68.2050   -1.0099   -0.6781 C   0  0  0  0  0  0  0  0  0  0  0  0
   68.8864   -2.1456   -1.2207 C   0  0  0  0  0  0  0  0  0  0  0  0
   67.9352   -2.9533   -1.7480 C   0  0  0  0  0  0  0  0  0  0  0  0
   66.6751   -2.2990   -1.5442 C   0  0  0  0  0  0  0  0  0  0  0  0
   66.8503   -1.1377   -0.8422 N   0  0  0  0  0  0  0  0  0  0  0  0
   65.4647   -2.7520   -2.0639 C   0  0  0  0  0  0  0  0  0  0  0  0
   65.4629   -3.9553   -2.9226 C   0  0  0  0  0  0  0  0  0  0  0  0
   66.2328   -4.0057   -4.0888 C   0  0  0  0  0  0  0  0  0  0  0  0
   66.2205   -5.1266   -4.8962 C   0  0  0  0  0  0  0  0  0  0  0  0
   65.4427   -6.2408   -4.5557 C   0  0  0  0  0  0  0  0  0  0  0  0
   65.5068   -7.3633   -5.3655 N   0  0  0  0  0  0  0  0  0  0  0  0
   64.4180   -8.3306   -5.3506 C   0  0  0  0  0  0  0  0  0  0  0  0
   64.6843   -6.2026   -3.3816 C   0  0  0  0  0  0  0  0  0  0  0  0
   64.6903   -5.0694   -2.5870 C   0  0  0  0  0  0  0  0  0  0  0  0
   64.2584   -2.1089   -1.8143 C   0  0  0  0  0  0  0  0  0  0  0  0
   63.0081   -2.4889   -2.4012 C   0  0  0  0  0  0  0  0  0  0  0  0
   62.0564   -1.7046   -1.8383 C   0  0  0  0  0  0  0  0  0  0  0  0
   64.0736   -1.0652   -0.9397 N   0  0  0  0  0  0  0  0  0  0  0  0
   62.7286   -0.8445   -0.9165 C   0  0  0  0  0  0  0  0  0  0  0  0
   62.0599    0.0199   -0.0395 C   0  0  0  0  0  0  0  0  0  0  0  0
   62.7328    0.8747    0.8440 C   0  0  0  0  0  0  0  0  0  0  0  0
   62.0665    1.7058    1.7961 C   0  0  0  0  0  0  0  0  0  0  0  0
   63.0221    2.4704    2.3792 C   0  0  0  0  0  0  0  0  0  0  0  0
   64.2675    2.1154    1.7664 C   0  0  0  0  0  0  0  0  0  0  0  0
   64.0773    1.0966    0.8630 N   0  0  0  0  0  0  0  0  0  0  0  0
   65.4695    2.7701    2.0044 C   0  0  0  0  0  0  0  0  0  0  0  0
   65.4762    3.9453    2.9011 C   0  0  0  0  0  0  0  0  0  0  0  0
   64.6729    5.0555    2.6315 C   0  0  0  0  0  0  0  0  0  0  0  0
   64.6780    6.1622    3.4625 C   0  0  0  0  0  0  0  0  0  0  0  0
   65.4806    6.1769    4.6073 C   0  0  0  0  0  0  0  0  0  0  0  0
   65.5570    7.2742    5.4500 N   0  0  0  0  0  0  0  0  0  0  0  0
   64.4500    8.2188    5.5113 C   0  0  0  0  0  0  0  0  0  0  0  0
   66.2909    5.0673    4.8807 C   0  0  0  0  0  0  0  0  0  0  0  0
   66.2910    3.9733    4.0373 C   0  0  0  0  0  0  0  0  0  0  0  0
   66.6693    2.3657    1.4226 C   0  0  0  0  0  0  0  0  0  0  0  0
   67.9146    3.0600    1.5789 C   0  0  0  0  0  0  0  0  0  0  0  0
   68.8627    2.3072    0.9711 C   0  0  0  0  0  0  0  0  0  0  0  0
   68.1942    1.1603    0.4358 C   0  0  0  0  0  0  0  0  0  0  0  0
   66.8470    1.2315    0.6792 N   0  0  0  0  0  0  0  0  0  0  0  0
   69.9286    0.1119   -0.1755 H   0  0  0  0  0  0  0  0  0  0  0  0
   69.9547   -2.2909   -1.1903 H   0  0  0  0  0  0  0  0  0  0  0  0
   68.0643   -3.9092   -2.2292 H   0  0  0  0  0  0  0  0  0  0  0  0
   66.8247   -3.1435   -4.3758 H   0  0  0  0  0  0  0  0  0  0  0  0
   66.8141   -5.1483   -5.8041 H   0  0  0  0  0  0  0  0  0  0  0  0
   65.8297   -7.1559   -6.3026 H   0  0  0  0  0  0  0  0  0  0  0  0
   63.4473   -7.8471   -5.5086 H   0  0  0  0  0  0  0  0  0  0  0  0
   64.4032   -8.8623   -4.3982 H   0  0  0  0  0  0  0  0  0  0  0  0
   64.5963   -9.0506   -6.1493 H   0  0  0  0  0  0  0  0  0  0  0  0
   64.0893   -7.0563   -3.0813 H   0  0  0  0  0  0  0  0  0  0  0  0
   64.1046   -5.0554   -1.6743 H   0  0  0  0  0  0  0  0  0  0  0  0
   62.8838   -3.2512   -3.1531 H   0  0  0  0  0  0  0  0  0  0  0  0
   60.9934   -1.7000   -2.0192 H   0  0  0  0  0  0  0  0  0  0  0  0
   61.0051    1.6934    1.9855 H   0  0  0  0  0  0  0  0  0  0  0  0
   62.9030    3.2057    3.1583 H   0  0  0  0  0  0  0  0  0  0  0  0
   64.0539    5.0610    1.7409 H   0  0  0  0  0  0  0  0  0  0  0  0
   64.0576    7.0141    3.2129 H   0  0  0  0  0  0  0  0  0  0  0  0
   65.9218    7.0434    6.3661 H   0  0  0  0  0  0  0  0  0  0  0  0
   64.3844    8.7792    4.5777 H   0  0  0  0  0  0  0  0  0  0  0  0
   64.6481    8.9175    6.3241 H   0  0  0  0  0  0  0  0  0  0  0  0
   63.4965    7.7106    5.6944 H   0  0  0  0  0  0  0  0  0  0  0  0
   66.9198    5.0714    5.7648 H   0  0  0  0  0  0  0  0  0  0  0  0
   66.9099    3.1141    4.2718 H   0  0  0  0  0  0  0  0  0  0  0  0
   68.0356    4.0050    2.0832 H   0  0  0  0  0  0  0  0  0  0  0  0
   69.9213    2.4947    0.8850 H   0  0  0  0  0  0  0  0  0  0  0  0
   42.1194   -0.0576    0.0975 C   0  0  0  0  0  0  0  0  0  0  0  0
   40.8885   -0.0588    0.0905 C   0  0  0  0  0  0  0  0  0  0  0  0
   39.5484   -0.0566    0.0755 C   0  0  0  0  0  0  0  0  0  0  0  0
   38.3222   -0.0459    0.0642 C   0  0  0  0  0  0  0  0  0  0  0  0
   43.4595   -0.0522    0.0948 C   0  0  0  0  0  0  0  0  0  0  0  0
   44.6859   -0.0421    0.0859 C   0  0  0  0  0  0  0  0  0  0  0  0
   58.0941    0.0254   -0.0383 C   0  0  0  0  0  0  0  0  0  0  0  0
   56.8631    0.0248   -0.0372 C   0  0  0  0  0  0  0  0  0  0  0  0
   55.5230    0.0254   -0.0353 C   0  0  0  0  0  0  0  0  0  0  0  0
   54.2965    0.0243   -0.0342 C   0  0  0  0  0  0  0  0  0  0  0  0
   59.4344    0.0241   -0.0394 C   0  0  0  0  0  0  0  0  0  0  0  0
   60.6606    0.0230   -0.0391 C   0  0  0  0  0  0  0  0  0  0  0  0
   49.4908    0.0160   -0.0015 Fe  0  0  0  0  0  0  0  0  0  0  0  0
   46.0842   -0.0296    0.0684 C   0  0  0  0  0  0  0  0  0  0  0  0
   46.7573   -1.1051   -0.5279 C   0  0  0  0  0  0  0  0  0  0  0  0
   46.0844   -2.2176   -1.1194 C   0  0  0  0  0  0  0  0  0  0  0  0
   47.0339   -2.9566   -1.7438 C   0  0  0  0  0  0  0  0  0  0  0  0
   48.2856   -2.2984   -1.5183 C   0  0  0  0  0  0  0  0  0  0  0  0
   48.1006   -1.1778   -0.7454 N   0  0  0  0  0  0  0  0  0  0  0  0
   49.4812   -2.6697   -2.1243 C   0  0  0  0  0  0  0  0  0  0  0  0
   49.4754   -3.8233   -3.0522 C   0  0  0  0  0  0  0  0  0  0  0  0
   49.1503   -5.1047   -2.5988 C   0  0  0  0  0  0  0  0  0  0  0  0
   49.1489   -6.1806   -3.4658 C   0  0  0  0  0  0  0  0  0  0  0  0
   49.4641   -6.0048   -4.8192 C   0  0  0  0  0  0  0  0  0  0  0  0
   49.3910   -7.1021   -5.6622 N   0  0  0  0  0  0  0  0  0  0  0  0
   50.1409   -7.1079   -6.9108 C   0  0  0  0  0  0  0  0  0  0  0  0
   49.7751   -4.7219   -5.2799 C   0  0  0  0  0  0  0  0  0  0  0  0
   49.7888   -3.6521   -4.4016 C   0  0  0  0  0  0  0  0  0  0  0  0
   50.6827   -2.0072   -1.8958 C   0  0  0  0  0  0  0  0  0  0  0  0
   51.9338   -2.3967   -2.4736 C   0  0  0  0  0  0  0  0  0  0  0  0
   52.8913   -1.6423   -1.8802 C   0  0  0  0  0  0  0  0  0  0  0  0
   50.8758   -1.0050   -0.9762 N   0  0  0  0  0  0  0  0  0  0  0  0
   52.2225   -0.8009   -0.9395 C   0  0  0  0  0  0  0  0  0  0  0  0
   52.8980    0.0275   -0.0322 C   0  0  0  0  0  0  0  0  0  0  0  0
   52.2305    0.8618    0.8754 C   0  0  0  0  0  0  0  0  0  0  0  0
   52.9025    1.6801    1.8334 C   0  0  0  0  0  0  0  0  0  0  0  0
   51.9503    2.4422    2.4270 C   0  0  0  0  0  0  0  0  0  0  0  0
   50.7029    2.0925    1.8179 C   0  0  0  0  0  0  0  0  0  0  0  0
   50.8860    1.0834    0.9051 N   0  0  0  0  0  0  0  0  0  0  0  0
   49.4983    2.7419    2.0726 C   0  0  0  0  0  0  0  0  0  0  0  0
   49.5048    3.9224    2.9601 C   0  0  0  0  0  0  0  0  0  0  0  0
   48.6986    3.9677    4.1001 C   0  0  0  0  0  0  0  0  0  0  0  0
   48.7051    5.0679    4.9392 C   0  0  0  0  0  0  0  0  0  0  0  0
   49.5229    6.1656    4.6520 C   0  0  0  0  0  0  0  0  0  0  0  0
   49.5270    7.3146    5.4240 N   0  0  0  0  0  0  0  0  0  0  0  0
   49.1018    7.2597    6.8156 C   0  0  0  0  0  0  0  0  0  0  0  0
   50.3231    6.1313    3.5023 C   0  0  0  0  0  0  0  0  0  0  0  0
   50.3189    5.0242    2.6767 C   0  0  0  0  0  0  0  0  0  0  0  0
   48.2892    2.3204    1.5278 C   0  0  0  0  0  0  0  0  0  0  0  0
   47.0405    2.9943    1.7194 C   0  0  0  0  0  0  0  0  0  0  0  0
   46.0830    2.2066    1.1696 C   0  0  0  0  0  0  0  0  0  0  0  0
   46.7533    1.0674    0.6292 C   0  0  0  0  0  0  0  0  0  0  0  0
   48.1003    1.1656    0.8087 N   0  0  0  0  0  0  0  0  0  0  0  0
   45.0209   -2.3881   -1.0728 H   0  0  0  0  0  0  0  0  0  0  0  0
   46.9013   -3.8554   -2.3234 H   0  0  0  0  0  0  0  0  0  0  0  0
   48.9218   -5.2587   -1.5500 H   0  0  0  0  0  0  0  0  0  0  0  0
   48.9040   -7.1720   -3.0998 H   0  0  0  0  0  0  0  0  0  0  0  0
   49.4543   -7.9836   -5.1676 H   0  0  0  0  0  0  0  0  0  0  0  0
   49.7190   -6.3789   -7.6038 H   0  0  0  0  0  0  0  0  0  0  0  0
   51.1995   -6.8776   -6.7457 H   0  0  0  0  0  0  0  0  0  0  0  0
   50.0524   -8.1005   -7.3523 H   0  0  0  0  0  0  0  0  0  0  0  0
   50.0037   -4.5512   -6.3248 H   0  0  0  0  0  0  0  0  0  0  0  0
   50.0215   -2.6600   -4.7727 H   0  0  0  0  0  0  0  0  0  0  0  0
   52.0597   -3.1651   -3.2187 H   0  0  0  0  0  0  0  0  0  0  0  0
   53.9568   -1.6556   -2.0436 H   0  0  0  0  0  0  0  0  0  0  0  0
   53.9646    1.6645    2.0180 H   0  0  0  0  0  0  0  0  0  0  0  0
   52.0742    3.1694    3.2129 H   0  0  0  0  0  0  0  0  0  0  0  0
   48.0760    3.1144    4.3463 H   0  0  0  0  0  0  0  0  0  0  0  0
   48.0718    5.0669    5.8177 H   0  0  0  0  0  0  0  0  0  0  0  0
   50.3559    7.8803    5.2902 H   0  0  0  0  0  0  0  0  0  0  0  0
   49.6370    6.4801    7.3696 H   0  0  0  0  0  0  0  0  0  0  0  0
   49.3071    8.2294    7.2690 H   0  0  0  0  0  0  0  0  0  0  0  0
   48.0294    7.0679    6.8717 H   0  0  0  0  0  0  0  0  0  0  0  0
   50.9483    6.9849    3.2626 H   0  0  0  0  0  0  0  0  0  0  0  0
   50.9345    5.0175    1.7840 H   0  0  0  0  0  0  0  0  0  0  0  0
   46.9191    3.9492    2.2043 H   0  0  0  0  0  0  0  0  0  0  0  0
   45.0186    2.3722    1.1245 H   0  0  0  0  0  0  0  0  0  0  0  0
  2  3  4  0  0  0  0
  3  4  4  0  0  0  0
  4  5  2  0  0  0  0
  5  6  4  0  0  0  0
  1  7  1  0  0  0  0
  3  7  4  0  0  0  0
  6  7  4  0  0  0  0
  6  8  4  0  0  0  0
  8  9  1  0  0  0  0
  9 10  4  0  0  0  0
 10 11  4  0  0  0  0
 11 12  4  0  0  0  0
 12 13  1  0  0  0  0
 13 14  1  0  0  0  0
 12 15  4  0  0  0  0
  9 16  4  0  0  0  0
 15 16  4  0  0  0  0
  8 17  4  0  0  0  0
 17 18  4  0  0  0  0
 18 19  2  0  0  0  0
  1 20  1  0  0  0  0
 17 20  4  0  0  0  0
 19 21  4  0  0  0  0
 20 21  4  0  0  0  0
 21 22  4  0  0  0  0
 22 23  4  0  0  0  0
 23 24  4  0  0  0  0
 24 25  2  0  0  0  0
 25 26  4  0  0  0  0
  1 27  1  0  0  0  0
 23 27  4  0  0  0  0
 26 27  4  0  0  0  0
 26 28  4  0  0  0  0
 28 29  1  0  0  0  0
 29 30  4  0  0  0  0
 30 31  4  0  0  0  0
 31 32  4  0  0  0  0
 32 33  1  0  0  0  0
 33 34  1  0  0  0  0
 32 35  4  0  0  0  0
 29 36  4  0  0  0  0
 35 36  4  0  0  0  0
 28 37  4  0  0  0  0
 37 38  4  0  0  0  0
 38 39  2  0  0  0  0
  2 40  4  0  0  0  0
 39 40  4  0  0  0  0
  1 41  1  0  0  0  0
 37 41  4  0  0  0  0
 40 41  4  0  0  0  0
  2 42  1  0  0  0  0
  4 43  1  0  0  0  0
  5 44  1  0  0  0  0
 10 45  1  0  0  0  0
 11 46  1  0  0  0  0
 13 47  1  0  0  0  0
 14 48  1  0  0  0  0
 14 49  1  0  0  0  0
 14 50  1  0  0  0  0
 15 51  1  0  0  0  0
 16 52  1  0  0  0  0
 18 53  1  0  0  0  0
 19 54  1  0  0  0  0
 24 55  1  0  0  0  0
 25 56  1  0  0  0  0
 30 57  1  0  0  0  0
 31 58  1  0  0  0  0
 33 59  1  0  0  0  0
 34 60  1  0  0  0  0
 34 61  1  0  0  0  0
 34 62  1  0  0  0  0
 35 63  1  0  0  0  0
 36 64  1  0  0  0  0
 38 65  1  0  0  0  0
 39 66  1  0  0  0  0
 68 69  4  0  0  0  0
 69 70  4  0  0  0  0
 70 71  2  0  0  0  0
 71 72  4  0  0  0  0
 67 73  1  0  0  0  0
 69 73  4  0  0  0  0
 72 73  4  0  0  0  0
 72 74  4  0  0  0  0
 74 75  1  0  0  0  0
 75 76  4  0  0  0  0
 76 77  4  0  0  0  0
 77 78  4  0  0  0  0
 78 79  1  0  0  0  0
 79 80  1  0  0  0  0
 78 81  4  0  0  0  0
 75 82  4  0  0  0  0
 81 82  4  0  0  0  0
 74 83  4  0  0  0  0
 83 84  4  0  0  0  0
 84 85  2  0  0  0  0
 67 86  1  0  0  0  0
 83 86  4  0  0  0  0
 85 87  4  0  0  0  0
 86 87  4  0  0  0  0
 87 88  4  0  0  0  0
 88 89  4  0  0  0  0
 89 90  4  0  0  0  0
 90 91  2  0  0  0  0
 91 92  4  0  0  0  0
 67 93  1  0  0  0  0
 89 93  4  0  0  0  0
 92 93  4  0  0  0  0
 92 94  4  0  0  0  0
 94 95  1  0  0  0  0
 95 96  4  0  0  0  0
 96 97  4  0  0  0  0
 97 98  4  0  0  0  0
 98 99  1  0  0  0  0
 99100  1  0  0  0  0
 98101  4  0  0  0  0
 95102  4  0  0  0  0
101102  4  0  0  0  0
 94103  4  0  0  0  0
103104  4  0  0  0  0
104105  2  0  0  0  0
 68106  4  0  0  0  0
105106  4  0  0  0  0
 67107  1  0  0  0  0
103107  4  0  0  0  0
106107  4  0  0  0  0
 68108  1  0  0  0  0
 70109  1  0  0  0  0
 71110  1  0  0  0  0
 76111  1  0  0  0  0
 77112  1  0  0  0  0
 79113  1  0  0  0  0
 80114  1  0  0  0  0
 80115  1  0  0  0  0
 80116  1  0  0  0  0
 81117  1  0  0  0  0
 82118  1  0  0  0  0
 84119  1  0  0  0  0
 85120  1  0  0  0  0
 90121  1  0  0  0  0
 91122  1  0  0  0  0
 96123  1  0  0  0  0
 97124  1  0  0  0  0
 99125  1  0  0  0  0
100126  1  0  0  0  0
100127  1  0  0  0  0
100128  1  0  0  0  0
101129  1  0  0  0  0
102130  1  0  0  0  0
104131  1  0  0  0  0
105132  1  0  0  0  0
133134  3  0  0  0  0
134135  4  0  0  0  0
 22136  4  0  0  0  0
135136  3  0  0  0  0
133137  4  0  0  0  0
137138  3  0  0  0  0
139140  3  0  0  0  0
140141  4  0  0  0  0
141142  3  0  0  0  0
139143  4  0  0  0  0
 88144  4  0  0  0  0
143144  3  0  0  0  0
138146  4  0  0  0  0
146147  4  0  0  0  0
147148  4  0  0  0  0
148149  2  0  0  0  0
149150  4  0  0  0  0
145151  1  0  0  0  0
147151  4  0  0  0  0
150151  4  0  0  0  0
150152  4  0  0  0  0
152153  1  0  0  0  0
153154  4  0  0  0  0
154155  4  0  0  0  0
155156  4  0  0  0  0
156157  1  0  0  0  0
157158  1  0  0  0  0
156159  4  0  0  0  0
153160  4  0  0  0  0
159160  4  0  0  0  0
152161  4  0  0  0  0
161162  4  0  0  0  0
162163  2  0  0  0  0
145164  1  0  0  0  0
161164  4  0  0  0  0
163165  4  0  0  0  0
164165  4  0  0  0  0
142166  4  0  0  0  0
165166  4  0  0  0  0
166167  4  0  0  0  0
167168  4  0  0  0  0
168169  2  0  0  0  0
169170  4  0  0  0  0
145171  1  0  0  0  0
167171  4  0  0  0  0
170171  4  0  0  0  0
170172  4  0  0  0  0
172173  1  0  0  0  0
173174  4  0  0  0  0
174175  4  0  0  0  0
175176  4  0  0  0  0
176177  1  0  0  0  0
177178  1  0  0  0  0
176179  4  0  0  0  0
173180  4  0  0  0  0
179180  4  0  0  0  0
172181  4  0  0  0  0
181182  4  0  0  0  0
182183  2  0  0  0  0
146184  4  0  0  0  0
183184  4  0  0  0  0
145185  1  0  0  0  0
181185  4  0  0  0  0
184185  4  0  0  0  0
148186  1  0  0  0  0
149187  1  0  0  0  0
154188  1  0  0  0  0
155189  1  0  0  0  0
157190  1  0  0  0  0
158191  1  0  0  0  0
158192  1  0  0  0  0
158193  1  0  0  0  0
159194  1  0  0  0  0
160195  1  0  0  0  0
162196  1  0  0  0  0
163197  1  0  0  0  0
168198  1  0  0  0  0
169199  1  0  0  0  0
174200  1  0  0  0  0
175201  1  0  0  0  0
177202  1  0  0  0  0
178203  1  0  0  0  0
178204  1  0  0  0  0
178205  1  0  0  0  0
179206  1  0  0  0  0
180207  1  0  0  0  0
182208  1  0  0  0  0
183209  1  0  0  0  0
M  END
