 xtb: 6.5.1 (b24c23e)
          07302206073D

126145  0     0  0            999 V2000
   19.0185   -0.0892    0.0407 Ni  0  0  0  0  0  0  0  0  0  0  0  0
   15.6302   -0.1934    0.0682 C   0  0  0  0  0  0  0  0  0  0  0  0
   16.2939   -0.3742    1.2639 C   0  0  0  0  0  0  0  0  0  0  0  0
   15.6292   -0.5919    2.5128 C   0  0  0  0  0  0  0  0  0  0  0  0
   16.5864   -0.5802    3.4694 C   0  0  0  0  0  0  0  0  0  0  0  0
   17.8379   -0.3666    2.8026 C   0  0  0  0  0  0  0  0  0  0  0  0
   17.6497   -0.2645    1.4469 N   0  0  0  0  0  0  0  0  0  0  0  0
   19.0452   -0.1741    3.4608 C   0  0  0  0  0  0  0  0  0  0  0  0
   20.2429    0.0344    2.7895 C   0  0  0  0  0  0  0  0  0  0  0  0
   21.5034    0.2054    3.4462 C   0  0  0  0  0  0  0  0  0  0  0  0
   22.4493    0.2249    2.4771 C   0  0  0  0  0  0  0  0  0  0  0  0
   20.4161   -0.0259    1.4254 N   0  0  0  0  0  0  0  0  0  0  0  0
   21.7684    0.0578    1.2330 C   0  0  0  0  0  0  0  0  0  0  0  0
   22.4286   -0.0842    0.0100 C   0  0  0  0  0  0  0  0  0  0  0  0
   21.7458   -0.2045   -1.2025 C   0  0  0  0  0  0  0  0  0  0  0  0
   22.3997   -0.3739   -2.4606 C   0  0  0  0  0  0  0  0  0  0  0  0
   21.4380   -0.3086   -3.4126 C   0  0  0  0  0  0  0  0  0  0  0  0
   20.1965   -0.1004   -2.7312 C   0  0  0  0  0  0  0  0  0  0  0  0
   18.9825    0.0973   -3.3780 C   0  0  0  0  0  0  0  0  0  0  0  0
   18.9783    0.1945   -4.8556 C   0  0  0  0  0  0  0  0  0  0  0  0
   18.2577   -0.7214   -5.6268 C   0  0  0  0  0  0  0  0  0  0  0  0
   18.2647   -0.6297   -7.0065 C   0  0  0  0  0  0  0  0  0  0  0  0
   18.9892    0.3810   -7.6412 C   0  0  0  0  0  0  0  0  0  0  0  0
   18.9670    0.4367   -9.1226 C   0  0  0  0  0  0  0  0  0  0  0  0
   19.7086    1.4312   -9.6336 O   0  0  0  0  0  0  0  0  0  0  0  0
   18.3512   -0.3261   -9.8227 O   0  0  0  0  0  0  0  0  0  0  0  0
   19.7083    1.2995   -6.8758 C   0  0  0  0  0  0  0  0  0  0  0  0
   19.7031    1.2036   -5.4954 C   0  0  0  0  0  0  0  0  0  0  0  0
   17.7774    0.1926   -2.6938 C   0  0  0  0  0  0  0  0  0  0  0  0
   16.5082    0.4080   -3.3257 C   0  0  0  0  0  0  0  0  0  0  0  0
   15.5666    0.3038   -2.3590 C   0  0  0  0  0  0  0  0  0  0  0  0
   16.2616    0.0474   -1.1344 C   0  0  0  0  0  0  0  0  0  0  0  0
   17.6180    0.0194   -1.3416 N   0  0  0  0  0  0  0  0  0  0  0  0
   20.3923   -0.0852   -1.3697 N   0  0  0  0  0  0  0  0  0  0  0  0
   19.0634   -0.2073    4.9434 C   0  0  0  0  0  0  0  0  0  0  0  0
   18.7834   -1.3945    5.6242 C   0  0  0  0  0  0  0  0  0  0  0  0
   18.8169   -1.4296    7.0062 C   0  0  0  0  0  0  0  0  0  0  0  0
   19.1277   -0.2779    7.7317 C   0  0  0  0  0  0  0  0  0  0  0  0
   19.1584   -0.3676    9.2113 C   0  0  0  0  0  0  0  0  0  0  0  0
   19.4996    0.7825    9.8120 O   0  0  0  0  0  0  0  0  0  0  0  0
   18.9079   -1.3655    9.8375 O   0  0  0  0  0  0  0  0  0  0  0  0
   19.4011    0.9116    7.0557 C   0  0  0  0  0  0  0  0  0  0  0  0
   19.3701    0.9439    5.6722 C   0  0  0  0  0  0  0  0  0  0  0  0
   14.5470   -0.2260    0.0771 H   0  0  0  0  0  0  0  0  0  0  0  0
   14.5641   -0.7179    2.6241 H   0  0  0  0  0  0  0  0  0  0  0  0
   16.4679   -0.6898    4.5351 H   0  0  0  0  0  0  0  0  0  0  0  0
   21.6395    0.2831    4.5124 H   0  0  0  0  0  0  0  0  0  0  0  0
   23.5161    0.3353    2.5826 H   0  0  0  0  0  0  0  0  0  0  0  0
   23.4593   -0.5255   -2.5860 H   0  0  0  0  0  0  0  0  0  0  0  0
   21.5486   -0.4030   -4.4804 H   0  0  0  0  0  0  0  0  0  0  0  0
   17.7075   -1.5167   -5.1370 H   0  0  0  0  0  0  0  0  0  0  0  0
   17.7125   -1.3406   -7.6114 H   0  0  0  0  0  0  0  0  0  0  0  0
   19.6425    1.3976  -10.6017 H   0  0  0  0  0  0  0  0  0  0  0  0
   20.2695    2.0875   -7.3641 H   0  0  0  0  0  0  0  0  0  0  0  0
   20.2530    1.9238   -4.9001 H   0  0  0  0  0  0  0  0  0  0  0  0
   16.3687    0.6119   -4.3748 H   0  0  0  0  0  0  0  0  0  0  0  0
   14.4955    0.3931   -2.4464 H   0  0  0  0  0  0  0  0  0  0  0  0
   18.5561   -2.2926    5.0614 H   0  0  0  0  0  0  0  0  0  0  0  0
   18.6076   -2.3488    7.5423 H   0  0  0  0  0  0  0  0  0  0  0  0
   19.4981    0.6399   10.7724 H   0  0  0  0  0  0  0  0  0  0  0  0
   19.6380    1.8088    7.6153 H   0  0  0  0  0  0  0  0  0  0  0  0
   19.5739    1.8699    5.1463 H   0  0  0  0  0  0  0  0  0  0  0  0
   29.8739   -0.0840   -0.0507 Ni  0  0  0  0  0  0  0  0  0  0  0  0
   33.2622   -0.1843   -0.0901 C   0  0  0  0  0  0  0  0  0  0  0  0
   32.5986   -0.2259   -1.2987 C   0  0  0  0  0  0  0  0  0  0  0  0
   33.2632   -0.2981   -2.5643 C   0  0  0  0  0  0  0  0  0  0  0  0
   32.3060   -0.1762   -3.5132 C   0  0  0  0  0  0  0  0  0  0  0  0
   31.0546   -0.0410   -2.8262 C   0  0  0  0  0  0  0  0  0  0  0  0
   31.2427   -0.0959   -1.4677 N   0  0  0  0  0  0  0  0  0  0  0  0
   29.8473    0.2262   -3.4578 C   0  0  0  0  0  0  0  0  0  0  0  0
   28.6495    0.3558   -2.7670 C   0  0  0  0  0  0  0  0  0  0  0  0
   27.3891    0.6013   -3.3996 C   0  0  0  0  0  0  0  0  0  0  0  0
   26.4431    0.5089   -2.4347 C   0  0  0  0  0  0  0  0  0  0  0  0
   28.4763    0.1386   -1.4188 N   0  0  0  0  0  0  0  0  0  0  0  0
   27.1241    0.1996   -1.2181 C   0  0  0  0  0  0  0  0  0  0  0  0
   26.4638   -0.0825   -0.0197 C   0  0  0  0  0  0  0  0  0  0  0  0
   27.1466   -0.3417    1.1710 C   0  0  0  0  0  0  0  0  0  0  0  0
   26.4927   -0.6551    2.4011 C   0  0  0  0  0  0  0  0  0  0  0  0
   27.4544   -0.6999    3.3542 C   0  0  0  0  0  0  0  0  0  0  0  0
   28.6959   -0.4146    2.7014 C   0  0  0  0  0  0  0  0  0  0  0  0
   29.9100   -0.2928    3.3667 C   0  0  0  0  0  0  0  0  0  0  0  0
   29.9142   -0.3667    4.8457 C   0  0  0  0  0  0  0  0  0  0  0  0
   30.6347   -1.3654    5.5061 C   0  0  0  0  0  0  0  0  0  0  0  0
   30.6277   -1.4334    6.8871 C   0  0  0  0  0  0  0  0  0  0  0  0
   29.9032   -0.5027    7.6341 C   0  0  0  0  0  0  0  0  0  0  0  0
   29.9255   -0.6180    9.1121 C   0  0  0  0  0  0  0  0  0  0  0  0
   29.1839    0.3108    9.7343 O   0  0  0  0  0  0  0  0  0  0  0  0
   30.5413   -1.4565    9.7196 O   0  0  0  0  0  0  0  0  0  0  0  0
   29.1841    0.4980    6.9798 C   0  0  0  0  0  0  0  0  0  0  0  0
   29.1894    0.5619    5.5975 C   0  0  0  0  0  0  0  0  0  0  0  0
   31.1151   -0.1194    2.6980 C   0  0  0  0  0  0  0  0  0  0  0  0
   32.3842    0.0217    3.3505 C   0  0  0  0  0  0  0  0  0  0  0  0
   33.3259    0.0296    2.3783 C   0  0  0  0  0  0  0  0  0  0  0  0
   32.6308   -0.0838    1.1323 C   0  0  0  0  0  0  0  0  0  0  0  0
   31.2745   -0.1355    1.3348 N   0  0  0  0  0  0  0  0  0  0  0  0
   28.5001   -0.2425    1.3507 N   0  0  0  0  0  0  0  0  0  0  0  0
   29.8290    0.3641   -4.9343 C   0  0  0  0  0  0  0  0  0  0  0  0
   30.1090   -0.7366   -5.7475 C   0  0  0  0  0  0  0  0  0  0  0  0
   30.0755   -0.6121   -7.1243 C   0  0  0  0  0  0  0  0  0  0  0  0
   29.7647    0.6155   -7.7121 C   0  0  0  0  0  0  0  0  0  0  0  0
   29.7339    0.6971   -9.1922 C   0  0  0  0  0  0  0  0  0  0  0  0
   29.3928    1.9087   -9.6563 O   0  0  0  0  0  0  0  0  0  0  0  0
   29.9846   -0.2220   -9.9293 O   0  0  0  0  0  0  0  0  0  0  0  0
   29.4913    1.7192   -6.9035 C   0  0  0  0  0  0  0  0  0  0  0  0
   29.5223    1.5917   -5.5255 C   0  0  0  0  0  0  0  0  0  0  0  0
   34.3454   -0.2157   -0.1027 H   0  0  0  0  0  0  0  0  0  0  0  0
   34.3283   -0.4105   -2.6894 H   0  0  0  0  0  0  0  0  0  0  0  0
   32.4245   -0.1621   -4.5844 H   0  0  0  0  0  0  0  0  0  0  0  0
   27.2529    0.8015   -4.4497 H   0  0  0  0  0  0  0  0  0  0  0  0
   25.3763    0.6308   -2.5267 H   0  0  0  0  0  0  0  0  0  0  0  0
   25.4332   -0.8201    2.5082 H   0  0  0  0  0  0  0  0  0  0  0  0
   27.3438   -0.9168    4.4041 H   0  0  0  0  0  0  0  0  0  0  0  0
   31.1849   -2.0989    4.9279 H   0  0  0  0  0  0  0  0  0  0  0  0
   31.1799   -2.2093    7.4061 H   0  0  0  0  0  0  0  0  0  0  0  0
   29.2499    0.1658   10.6922 H   0  0  0  0  0  0  0  0  0  0  0  0
   28.6230    1.2244    7.5557 H   0  0  0  0  0  0  0  0  0  0  0  0
   28.6394    1.3460    5.0892 H   0  0  0  0  0  0  0  0  0  0  0  0
   32.5237    0.1032    4.4162 H   0  0  0  0  0  0  0  0  0  0  0  0
   34.3969    0.1082    2.4754 H   0  0  0  0  0  0  0  0  0  0  0  0
   30.3364   -1.6937   -5.2920 H   0  0  0  0  0  0  0  0  0  0  0  0
   30.2848   -1.4634   -7.7629 H   0  0  0  0  0  0  0  0  0  0  0  0
   29.3944    1.8779  -10.6267 H   0  0  0  0  0  0  0  0  0  0  0  0
   29.2544    2.6749   -7.3559 H   0  0  0  0  0  0  0  0  0  0  0  0
   29.3185    2.4509   -4.8964 H   0  0  0  0  0  0  0  0  0  0  0  0
   23.8382   -0.0924   -0.0009 C   0  0  0  0  0  0  0  0  0  0  0  0
   25.0542   -0.0919   -0.0098 C   0  0  0  0  0  0  0  0  0  0  0  0
  2  3  4  0  0  0  0
  3  4  4  0  0  0  0
  4  5  2  0  0  0  0
  5  6  4  0  0  0  0
  1  7  1  0  0  0  0
  3  7  4  0  0  0  0
  6  7  4  0  0  0  0
  6  8  4  0  0  0  0
  8  9  4  0  0  0  0
  9 10  4  0  0  0  0
 10 11  2  0  0  0  0
  1 12  1  0  0  0  0
  9 12  4  0  0  0  0
 11 13  4  0  0  0  0
 12 13  4  0  0  0  0
 13 14  4  0  0  0  0
 14 15  4  0  0  0  0
 15 16  4  0  0  0  0
 16 17  2  0  0  0  0
 17 18  4  0  0  0  0
 18 19  4  0  0  0  0
 19 20  1  0  0  0  0
 20 21  4  0  0  0  0
 21 22  4  0  0  0  0
 22 23  4  0  0  0  0
 23 24  1  0  0  0  0
 24 25  4  0  0  0  0
 24 26  2  0  0  0  0
 23 27  4  0  0  0  0
 20 28  4  0  0  0  0
 27 28  4  0  0  0  0
 19 29  4  0  0  0  0
 29 30  4  0  0  0  0
 30 31  2  0  0  0  0
  2 32  4  0  0  0  0
 31 32  4  0  0  0  0
  1 33  1  0  0  0  0
 29 33  4  0  0  0  0
 32 33  4  0  0  0  0
  1 34  1  0  0  0  0
 15 34  4  0  0  0  0
 18 34  4  0  0  0  0
  8 35  1  0  0  0  0
 35 36  4  0  0  0  0
 36 37  4  0  0  0  0
 37 38  4  0  0  0  0
 38 39  1  0  0  0  0
 39 40  4  0  0  0  0
 39 41  2  0  0  0  0
 38 42  4  0  0  0  0
 35 43  4  0  0  0  0
 42 43  4  0  0  0  0
  2 44  1  0  0  0  0
  4 45  1  0  0  0  0
  5 46  1  0  0  0  0
 10 47  1  0  0  0  0
 11 48  1  0  0  0  0
 16 49  1  0  0  0  0
 17 50  1  0  0  0  0
 21 51  1  0  0  0  0
 22 52  1  0  0  0  0
 25 53  1  0  0  0  0
 27 54  1  0  0  0  0
 28 55  1  0  0  0  0
 30 56  1  0  0  0  0
 31 57  1  0  0  0  0
 36 58  1  0  0  0  0
 37 59  1  0  0  0  0
 40 60  1  0  0  0  0
 42 61  1  0  0  0  0
 43 62  1  0  0  0  0
 64 65  4  0  0  0  0
 65 66  4  0  0  0  0
 66 67  2  0  0  0  0
 67 68  4  0  0  0  0
 63 69  1  0  0  0  0
 65 69  4  0  0  0  0
 68 69  4  0  0  0  0
 68 70  4  0  0  0  0
 70 71  4  0  0  0  0
 71 72  4  0  0  0  0
 72 73  2  0  0  0  0
 63 74  1  0  0  0  0
 71 74  4  0  0  0  0
 73 75  4  0  0  0  0
 74 75  4  0  0  0  0
 75 76  4  0  0  0  0
 76 77  4  0  0  0  0
 77 78  4  0  0  0  0
 78 79  2  0  0  0  0
 79 80  4  0  0  0  0
 80 81  4  0  0  0  0
 81 82  1  0  0  0  0
 82 83  4  0  0  0  0
 83 84  4  0  0  0  0
 84 85  4  0  0  0  0
 85 86  1  0  0  0  0
 86 87  4  0  0  0  0
 86 88  2  0  0  0  0
 85 89  4  0  0  0  0
 82 90  4  0  0  0  0
 89 90  4  0  0  0  0
 81 91  4  0  0  0  0
 91 92  4  0  0  0  0
 92 93  2  0  0  0  0
 64 94  4  0  0  0  0
 93 94  4  0  0  0  0
 63 95  1  0  0  0  0
 91 95  4  0  0  0  0
 94 95  4  0  0  0  0
 63 96  1  0  0  0  0
 77 96  4  0  0  0  0
 80 96  4  0  0  0  0
 70 97  1  0  0  0  0
 97 98  4  0  0  0  0
 98 99  4  0  0  0  0
 99100  4  0  0  0  0
100101  1  0  0  0  0
101102  4  0  0  0  0
101103  2  0  0  0  0
100104  4  0  0  0  0
 97105  4  0  0  0  0
104105  4  0  0  0  0
 64106  1  0  0  0  0
 66107  1  0  0  0  0
 67108  1  0  0  0  0
 72109  1  0  0  0  0
 73110  1  0  0  0  0
 78111  1  0  0  0  0
 79112  1  0  0  0  0
 83113  1  0  0  0  0
 84114  1  0  0  0  0
 87115  1  0  0  0  0
 89116  1  0  0  0  0
 90117  1  0  0  0  0
 92118  1  0  0  0  0
 93119  1  0  0  0  0
 98120  1  0  0  0  0
 99121  1  0  0  0  0
102122  1  0  0  0  0
104123  1  0  0  0  0
105124  1  0  0  0  0
 14125  4  0  0  0  0
 76126  4  0  0  0  0
125126  3  0  0  0  0
M  END
