 xtb: 6.5.1 (b24c23e)
          07292222343D

187216  0     0  0            999 V2000
   32.0936    0.0208   -0.0906 Co  0  0  0  0  0  0  0  0  0  0  0  0
   28.7280    0.0850   -0.3108 C   0  0  0  0  0  0  0  0  0  0  0  0
   29.4120    1.2792   -0.3807 C   0  0  0  0  0  0  0  0  0  0  0  0
   28.7722    2.5518   -0.5230 C   0  0  0  0  0  0  0  0  0  0  0  0
   29.7245    3.4901   -0.3123 C   0  0  0  0  0  0  0  0  0  0  0  0
   30.9498    2.7891   -0.0610 C   0  0  0  0  0  0  0  0  0  0  0  0
   30.7556    1.4347   -0.1469 N   0  0  0  0  0  0  0  0  0  0  0  0
   32.1246    3.3978    0.3616 C   0  0  0  0  0  0  0  0  0  0  0  0
   32.1339    4.8620    0.5888 C   0  0  0  0  0  0  0  0  0  0  0  0
   32.3182    5.3723    1.8767 C   0  0  0  0  0  0  0  0  0  0  0  0
   32.3226    6.7374    2.0905 C   0  0  0  0  0  0  0  0  0  0  0  0
   32.1488    7.6216    1.0207 C   0  0  0  0  0  0  0  0  0  0  0  0
   32.1591    9.0741    1.2748 C   0  0  0  0  0  0  0  0  0  0  0  0
   32.3115    9.5611    2.3656 O   0  0  0  0  0  0  0  0  0  0  0  0
   31.9696    7.1115   -0.2673 C   0  0  0  0  0  0  0  0  0  0  0  0
   31.9600    5.7442   -0.4803 C   0  0  0  0  0  0  0  0  0  0  0  0
   33.2947    2.6824    0.5612 C   0  0  0  0  0  0  0  0  0  0  0  0
   34.5455    3.2827    0.9182 C   0  0  0  0  0  0  0  0  0  0  0  0
   35.4937    2.3270    0.7706 C   0  0  0  0  0  0  0  0  0  0  0  0
   33.4727    1.3531    0.2489 N   0  0  0  0  0  0  0  0  0  0  0  0
   34.8198    1.1455    0.3330 C   0  0  0  0  0  0  0  0  0  0  0  0
   35.4853   -0.0211   -0.0539 C   0  0  0  0  0  0  0  0  0  0  0  0
   34.7952   -1.1846   -0.4020 C   0  0  0  0  0  0  0  0  0  0  0  0
   35.4438   -2.3984   -0.7861 C   0  0  0  0  0  0  0  0  0  0  0  0
   34.4811   -3.3495   -0.8482 C   0  0  0  0  0  0  0  0  0  0  0  0
   33.2472   -2.7111   -0.5007 C   0  0  0  0  0  0  0  0  0  0  0  0
   33.4458   -1.3670   -0.2860 N   0  0  0  0  0  0  0  0  0  0  0  0
   32.0439   -3.3808   -0.3324 C   0  0  0  0  0  0  0  0  0  0  0  0
   32.0263   -4.8565   -0.4330 C   0  0  0  0  0  0  0  0  0  0  0  0
   31.2363   -5.4895   -1.3971 C   0  0  0  0  0  0  0  0  0  0  0  0
   31.2232   -6.8693   -1.4968 C   0  0  0  0  0  0  0  0  0  0  0  0
   31.9967   -7.6447   -0.6298 C   0  0  0  0  0  0  0  0  0  0  0  0
   31.9973   -9.1171   -0.7129 C   0  0  0  0  0  0  0  0  0  0  0  0
   32.6456   -9.8274    0.0118 O   0  0  0  0  0  0  0  0  0  0  0  0
   32.7865   -7.0118    0.3358 C   0  0  0  0  0  0  0  0  0  0  0  0
   32.8039   -5.6337    0.4310 C   0  0  0  0  0  0  0  0  0  0  0  0
   30.8537   -2.7030   -0.1014 C   0  0  0  0  0  0  0  0  0  0  0  0
   29.5837   -3.3434    0.0812 C   0  0  0  0  0  0  0  0  0  0  0  0
   28.6468   -2.3666    0.0580 C   0  0  0  0  0  0  0  0  0  0  0  0
   29.3474   -1.1303   -0.1120 C   0  0  0  0  0  0  0  0  0  0  0  0
   30.7027   -1.3408   -0.1479 N   0  0  0  0  0  0  0  0  0  0  0  0
   27.6474    0.1055   -0.3884 H   0  0  0  0  0  0  0  0  0  0  0  0
   27.7227    2.6881   -0.7299 H   0  0  0  0  0  0  0  0  0  0  0  0
   29.6162    4.5624   -0.3074 H   0  0  0  0  0  0  0  0  0  0  0  0
   32.4431    4.6882    2.7083 H   0  0  0  0  0  0  0  0  0  0  0  0
   32.4588    7.1430    3.0872 H   0  0  0  0  0  0  0  0  0  0  0  0
   32.0138    9.6969    0.3665 H   0  0  0  0  0  0  0  0  0  0  0  0
   31.8390    7.7909   -1.1033 H   0  0  0  0  0  0  0  0  0  0  0  0
   31.8332    5.3507   -1.4825 H   0  0  0  0  0  0  0  0  0  0  0  0
   34.6733    4.3110    1.2142 H   0  0  0  0  0  0  0  0  0  0  0  0
   36.5574    2.4018    0.9288 H   0  0  0  0  0  0  0  0  0  0  0  0
   36.5017   -2.4957   -0.9691 H   0  0  0  0  0  0  0  0  0  0  0  0
   34.5850   -4.3901   -1.1087 H   0  0  0  0  0  0  0  0  0  0  0  0
   30.6462   -4.8900   -2.0810 H   0  0  0  0  0  0  0  0  0  0  0  0
   30.6117   -7.3519   -2.2522 H   0  0  0  0  0  0  0  0  0  0  0  0
   31.3443   -9.5287   -1.5117 H   0  0  0  0  0  0  0  0  0  0  0  0
   33.3819   -7.6223    1.0062 H   0  0  0  0  0  0  0  0  0  0  0  0
   33.4081   -5.1464    1.1878 H   0  0  0  0  0  0  0  0  0  0  0  0
   29.4411   -4.4046    0.2051 H   0  0  0  0  0  0  0  0  0  0  0  0
   27.5758   -2.4545    0.1472 H   0  0  0  0  0  0  0  0  0  0  0  0
   58.8622   -0.0272   -0.1382 Co  0  0  0  0  0  0  0  0  0  0  0  0
   62.2279   -0.0600   -0.4067 C   0  0  0  0  0  0  0  0  0  0  0  0
   61.5431   -1.2364   -0.6193 C   0  0  0  0  0  0  0  0  0  0  0  0
   62.1856   -2.4793   -0.9215 C   0  0  0  0  0  0  0  0  0  0  0  0
   61.2358   -3.4386   -0.8296 C   0  0  0  0  0  0  0  0  0  0  0  0
   60.0082   -2.7770   -0.4958 C   0  0  0  0  0  0  0  0  0  0  0  0
   60.2002   -1.4225   -0.4038 N   0  0  0  0  0  0  0  0  0  0  0  0
   58.8276   -3.4378   -0.1837 C   0  0  0  0  0  0  0  0  0  0  0  0
   58.8159   -4.9194   -0.1634 C   0  0  0  0  0  0  0  0  0  0  0  0
   58.5976   -5.6036    1.0356 C   0  0  0  0  0  0  0  0  0  0  0  0
   58.5901   -6.9850    1.0576 C   0  0  0  0  0  0  0  0  0  0  0  0
   58.7951   -7.7125   -0.1194 C   0  0  0  0  0  0  0  0  0  0  0  0
   58.7809   -9.1861   -0.0702 C   0  0  0  0  0  0  0  0  0  0  0  0
   58.5975   -9.8200    0.9372 O   0  0  0  0  0  0  0  0  0  0  0  0
   59.0081   -7.0287   -1.3187 C   0  0  0  0  0  0  0  0  0  0  0  0
   59.0200   -5.6451   -1.3395 C   0  0  0  0  0  0  0  0  0  0  0  0
   57.6508   -2.7571    0.0857 C   0  0  0  0  0  0  0  0  0  0  0  0
   56.3932   -3.4053    0.3107 C   0  0  0  0  0  0  0  0  0  0  0  0
   55.4462   -2.4378    0.2904 C   0  0  0  0  0  0  0  0  0  0  0  0
   57.4773   -1.3954   -0.0211 N   0  0  0  0  0  0  0  0  0  0  0  0
   56.1276   -1.2021    0.0661 C   0  0  0  0  0  0  0  0  0  0  0  0
   55.4674    0.0157   -0.1102 C   0  0  0  0  0  0  0  0  0  0  0  0
   56.1589    1.2219   -0.2319 C   0  0  0  0  0  0  0  0  0  0  0  0
   55.5091    2.4855   -0.3820 C   0  0  0  0  0  0  0  0  0  0  0  0
   56.4733    3.4314   -0.2833 C   0  0  0  0  0  0  0  0  0  0  0  0
   57.7100    2.7399   -0.0753 C   0  0  0  0  0  0  0  0  0  0  0  0
   57.5106    1.3792   -0.0978 N   0  0  0  0  0  0  0  0  0  0  0  0
   58.9200    3.3725    0.1695 C   0  0  0  0  0  0  0  0  0  0  0  0
   58.9411    4.8457    0.3067 C   0  0  0  0  0  0  0  0  0  0  0  0
   59.6918    5.6254   -0.5778 C   0  0  0  0  0  0  0  0  0  0  0  0
   59.7071    7.0034   -0.4577 C   0  0  0  0  0  0  0  0  0  0  0  0
   58.9753    7.6295    0.5541 C   0  0  0  0  0  0  0  0  0  0  0  0
   58.9770    9.0964    0.7047 C   0  0  0  0  0  0  0  0  0  0  0  0
   58.3665    9.6816    1.5619 O   0  0  0  0  0  0  0  0  0  0  0  0
   58.2252    6.8495    1.4405 C   0  0  0  0  0  0  0  0  0  0  0  0
   58.2052    5.4736    1.3161 C   0  0  0  0  0  0  0  0  0  0  0  0
   60.1133    2.6678    0.2516 C   0  0  0  0  0  0  0  0  0  0  0  0
   61.3900    3.2757    0.4911 C   0  0  0  0  0  0  0  0  0  0  0  0
   62.3228    2.3149    0.2948 C   0  0  0  0  0  0  0  0  0  0  0  0
   61.6138    1.1164   -0.0354 C   0  0  0  0  0  0  0  0  0  0  0  0
   60.2586    1.3283   -0.0057 N   0  0  0  0  0  0  0  0  0  0  0  0
   63.3071   -0.0689   -0.5028 H   0  0  0  0  0  0  0  0  0  0  0  0
   63.2353   -2.5858   -1.1438 H   0  0  0  0  0  0  0  0  0  0  0  0
   61.3467   -4.5028   -0.9592 H   0  0  0  0  0  0  0  0  0  0  0  0
   58.4483   -5.0414    1.9504 H   0  0  0  0  0  0  0  0  0  0  0  0
   58.4273   -7.5249    1.9843 H   0  0  0  0  0  0  0  0  0  0  0  0
   58.9529   -9.6767   -1.0520 H   0  0  0  0  0  0  0  0  0  0  0  0
   59.1627   -7.5856   -2.2371 H   0  0  0  0  0  0  0  0  0  0  0  0
   59.1724   -5.1166   -2.2738 H   0  0  0  0  0  0  0  0  0  0  0  0
   56.2613   -4.4674    0.4372 H   0  0  0  0  0  0  0  0  0  0  0  0
   54.3790   -2.5355    0.4079 H   0  0  0  0  0  0  0  0  0  0  0  0
   54.4493    2.6146   -0.5314 H   0  0  0  0  0  0  0  0  0  0  0  0
   56.3693    4.5020   -0.3498 H   0  0  0  0  0  0  0  0  0  0  0  0
   60.2494    5.1432   -1.3728 H   0  0  0  0  0  0  0  0  0  0  0  0
   60.2876    7.6014   -1.1527 H   0  0  0  0  0  0  0  0  0  0  0  0
   59.5972    9.6308   -0.0463 H   0  0  0  0  0  0  0  0  0  0  0  0
   57.6620    7.3444    2.2243 H   0  0  0  0  0  0  0  0  0  0  0  0
   57.6310    4.8708    2.0105 H   0  0  0  0  0  0  0  0  0  0  0  0
   61.5389    4.3067    0.7680 H   0  0  0  0  0  0  0  0  0  0  0  0
   63.3962    2.3895    0.3661 H   0  0  0  0  0  0  0  0  0  0  0  0
   38.1107   -0.0323   -0.0746 C   0  0  0  0  0  0  0  0  0  0  0  0
   36.8879   -0.0304   -0.0664 C   0  0  0  0  0  0  0  0  0  0  0  0
   39.4587   -0.0307   -0.0775 C   0  0  0  0  0  0  0  0  0  0  0  0
   40.6816   -0.0310   -0.0710 C   0  0  0  0  0  0  0  0  0  0  0  0
   51.4914    0.0335   -0.1319 C   0  0  0  0  0  0  0  0  0  0  0  0
   50.2692    0.0297   -0.1200 C   0  0  0  0  0  0  0  0  0  0  0  0
   52.8408    0.0323   -0.1345 C   0  0  0  0  0  0  0  0  0  0  0  0
   54.0629    0.0297   -0.1284 C   0  0  0  0  0  0  0  0  0  0  0  0
   45.4746   -0.0053   -0.0759 Co  0  0  0  0  0  0  0  0  0  0  0  0
   42.0829   -0.0272   -0.0572 C   0  0  0  0  0  0  0  0  0  0  0  0
   42.7603    1.1944    0.0117 C   0  0  0  0  0  0  0  0  0  0  0  0
   42.1072    2.4641    0.0341 C   0  0  0  0  0  0  0  0  0  0  0  0
   43.0565    3.3833    0.3380 C   0  0  0  0  0  0  0  0  0  0  0  0
   44.2843    2.6670    0.5057 C   0  0  0  0  0  0  0  0  0  0  0  0
   44.1004    1.3312    0.2386 N   0  0  0  0  0  0  0  0  0  0  0  0
   45.4593    3.2231    0.9946 C   0  0  0  0  0  0  0  0  0  0  0  0
   45.4499    4.6293    1.4514 C   0  0  0  0  0  0  0  0  0  0  0  0
   46.3066    5.5692    0.8699 C   0  0  0  0  0  0  0  0  0  0  0  0
   46.2937    6.8828    1.2973 C   0  0  0  0  0  0  0  0  0  0  0  0
   45.4290    7.2857    2.3202 C   0  0  0  0  0  0  0  0  0  0  0  0
   45.4387    8.6935    2.7613 C   0  0  0  0  0  0  0  0  0  0  0  0
   46.1525    9.5376    2.2843 O   0  0  0  0  0  0  0  0  0  0  0  0
   44.5739    6.3476    2.9029 C   0  0  0  0  0  0  0  0  0  0  0  0
   44.5819    5.0337    2.4697 C   0  0  0  0  0  0  0  0  0  0  0  0
   46.6437    2.5011    1.0551 C   0  0  0  0  0  0  0  0  0  0  0  0
   47.8758    3.0105    1.5771 C   0  0  0  0  0  0  0  0  0  0  0  0
   48.8375    2.1126    1.2518 C   0  0  0  0  0  0  0  0  0  0  0  0
   46.8370    1.2598    0.4952 N   0  0  0  0  0  0  0  0  0  0  0  0
   48.1864    1.0519    0.5510 C   0  0  0  0  0  0  0  0  0  0  0  0
   48.8663    0.0169   -0.0971 C   0  0  0  0  0  0  0  0  0  0  0  0
   48.1852   -1.0396   -0.7084 C   0  0  0  0  0  0  0  0  0  0  0  0
   48.8327   -2.1030   -1.4079 C   0  0  0  0  0  0  0  0  0  0  0  0
   47.8828   -3.0376   -1.6580 C   0  0  0  0  0  0  0  0  0  0  0  0
   46.6609   -2.5417   -1.1017 C   0  0  0  0  0  0  0  0  0  0  0  0
   46.8471   -1.2845   -0.5791 N   0  0  0  0  0  0  0  0  0  0  0  0
   45.4902   -3.2815   -0.9895 C   0  0  0  0  0  0  0  0  0  0  0  0
   45.5004   -4.7022   -1.3991 C   0  0  0  0  0  0  0  0  0  0  0  0
   46.3835   -5.6032   -0.7972 C   0  0  0  0  0  0  0  0  0  0  0  0
   46.3954   -6.9331   -1.1781 C   0  0  0  0  0  0  0  0  0  0  0  0
   45.5289   -7.3871   -2.1752 C   0  0  0  0  0  0  0  0  0  0  0  0
   45.5252   -8.7984   -2.6044 C   0  0  0  0  0  0  0  0  0  0  0  0
   44.8035   -9.2328   -3.4647 O   0  0  0  0  0  0  0  0  0  0  0  0
   44.6479   -6.4850   -2.7806 C   0  0  0  0  0  0  0  0  0  0  0  0
   44.6312   -5.1586   -2.3949 C   0  0  0  0  0  0  0  0  0  0  0  0
   44.3111   -2.7224   -0.5166 C   0  0  0  0  0  0  0  0  0  0  0  0
   43.0847   -3.4419   -0.3480 C   0  0  0  0  0  0  0  0  0  0  0  0
   42.1228   -2.5194   -0.1010 C   0  0  0  0  0  0  0  0  0  0  0  0
   42.7685   -1.2454   -0.1008 C   0  0  0  0  0  0  0  0  0  0  0  0
   44.1151   -1.3805   -0.2847 N   0  0  0  0  0  0  0  0  0  0  0  0
   41.0558    2.6155   -0.1500 H   0  0  0  0  0  0  0  0  0  0  0  0
   42.9458    4.4505    0.4399 H   0  0  0  0  0  0  0  0  0  0  0  0
   46.9684    5.2630    0.0676 H   0  0  0  0  0  0  0  0  0  0  0  0
   46.9508    7.6194    0.8476 H   0  0  0  0  0  0  0  0  0  0  0  0
   44.7238    8.9196    3.5808 H   0  0  0  0  0  0  0  0  0  0  0  0
   43.9020    6.6512    3.6991 H   0  0  0  0  0  0  0  0  0  0  0  0
   43.9259    4.3048    2.9321 H   0  0  0  0  0  0  0  0  0  0  0  0
   47.9817    3.9379    2.1159 H   0  0  0  0  0  0  0  0  0  0  0  0
   49.8953    2.1531    1.4557 H   0  0  0  0  0  0  0  0  0  0  0  0
   49.8808   -2.1219   -1.6596 H   0  0  0  0  0  0  0  0  0  0  0  0
   47.9897   -3.9787   -2.1724 H   0  0  0  0  0  0  0  0  0  0  0  0
   47.0490   -5.2559   -0.0149 H   0  0  0  0  0  0  0  0  0  0  0  0
   47.0796   -7.6271   -0.7009 H   0  0  0  0  0  0  0  0  0  0  0  0
   46.2522   -9.4414   -2.0642 H   0  0  0  0  0  0  0  0  0  0  0  0
   43.9818   -6.8457   -3.5570 H   0  0  0  0  0  0  0  0  0  0  0  0
   43.9570   -4.4589   -2.8758 H   0  0  0  0  0  0  0  0  0  0  0  0
   42.9825   -4.5125   -0.4174 H   0  0  0  0  0  0  0  0  0  0  0  0
   41.0681   -2.6714    0.0623 H   0  0  0  0  0  0  0  0  0  0  0  0
  2  3  4  0  0  0  0
  3  4  1  0  0  0  0
  4  5  2  0  0  0  0
  5  6  4  0  0  0  0
  1  7  1  0  0  0  0
  3  7  4  0  0  0  0
  6  7  4  0  0  0  0
  6  8  4  0  0  0  0
  8  9  1  0  0  0  0
  9 10  4  0  0  0  0
 10 11  4  0  0  0  0
 11 12  4  0  0  0  0
 12 13  1  0  0  0  0
 13 14  2  0  0  0  0
 12 15  4  0  0  0  0
  9 16  4  0  0  0  0
 15 16  4  0  0  0  0
  8 17  4  0  0  0  0
 17 18  4  0  0  0  0
 18 19  2  0  0  0  0
  1 20  1  0  0  0  0
 17 20  4  0  0  0  0
 19 21  4  0  0  0  0
 20 21  4  0  0  0  0
 21 22  4  0  0  0  0
 22 23  4  0  0  0  0
 23 24  4  0  0  0  0
 24 25  2  0  0  0  0
 25 26  4  0  0  0  0
  1 27  1  0  0  0  0
 23 27  4  0  0  0  0
 26 27  4  0  0  0  0
 26 28  4  0  0  0  0
 28 29  1  0  0  0  0
 29 30  4  0  0  0  0
 30 31  4  0  0  0  0
 31 32  4  0  0  0  0
 32 33  1  0  0  0  0
 33 34  2  0  0  0  0
 32 35  4  0  0  0  0
 29 36  4  0  0  0  0
 35 36  4  0  0  0  0
 28 37  4  0  0  0  0
 37 38  4  0  0  0  0
 38 39  2  0  0  0  0
  2 40  4  0  0  0  0
 39 40  1  0  0  0  0
  1 41  1  0  0  0  0
 37 41  4  0  0  0  0
 40 41  4  0  0  0  0
  2 42  1  0  0  0  0
  4 43  1  0  0  0  0
  5 44  1  0  0  0  0
 10 45  1  0  0  0  0
 11 46  1  0  0  0  0
 13 47  1  0  0  0  0
 15 48  1  0  0  0  0
 16 49  1  0  0  0  0
 18 50  1  0  0  0  0
 19 51  1  0  0  0  0
 24 52  1  0  0  0  0
 25 53  1  0  0  0  0
 30 54  1  0  0  0  0
 31 55  1  0  0  0  0
 33 56  1  0  0  0  0
 35 57  1  0  0  0  0
 36 58  1  0  0  0  0
 38 59  1  0  0  0  0
 39 60  1  0  0  0  0
 62 63  4  0  0  0  0
 63 64  1  0  0  0  0
 64 65  2  0  0  0  0
 65 66  4  0  0  0  0
 61 67  1  0  0  0  0
 63 67  4  0  0  0  0
 66 67  4  0  0  0  0
 66 68  4  0  0  0  0
 68 69  1  0  0  0  0
 69 70  4  0  0  0  0
 70 71  4  0  0  0  0
 71 72  4  0  0  0  0
 72 73  1  0  0  0  0
 73 74  2  0  0  0  0
 72 75  4  0  0  0  0
 69 76  4  0  0  0  0
 75 76  4  0  0  0  0
 68 77  4  0  0  0  0
 77 78  4  0  0  0  0
 78 79  2  0  0  0  0
 61 80  1  0  0  0  0
 77 80  4  0  0  0  0
 79 81  4  0  0  0  0
 80 81  4  0  0  0  0
 81 82  4  0  0  0  0
 82 83  4  0  0  0  0
 83 84  4  0  0  0  0
 84 85  2  0  0  0  0
 85 86  4  0  0  0  0
 61 87  1  0  0  0  0
 83 87  4  0  0  0  0
 86 87  4  0  0  0  0
 86 88  4  0  0  0  0
 88 89  1  0  0  0  0
 89 90  4  0  0  0  0
 90 91  4  0  0  0  0
 91 92  4  0  0  0  0
 92 93  1  0  0  0  0
 93 94  2  0  0  0  0
 92 95  4  0  0  0  0
 89 96  4  0  0  0  0
 95 96  4  0  0  0  0
 88 97  4  0  0  0  0
 97 98  4  0  0  0  0
 98 99  2  0  0  0  0
 62100  4  0  0  0  0
 99100  1  0  0  0  0
 61101  1  0  0  0  0
 97101  4  0  0  0  0
100101  4  0  0  0  0
 62102  1  0  0  0  0
 64103  1  0  0  0  0
 65104  1  0  0  0  0
 70105  1  0  0  0  0
 71106  1  0  0  0  0
 73107  1  0  0  0  0
 75108  1  0  0  0  0
 76109  1  0  0  0  0
 78110  1  0  0  0  0
 79111  1  0  0  0  0
 84112  1  0  0  0  0
 85113  1  0  0  0  0
 90114  1  0  0  0  0
 91115  1  0  0  0  0
 93116  1  0  0  0  0
 95117  1  0  0  0  0
 96118  1  0  0  0  0
 98119  1  0  0  0  0
 99120  1  0  0  0  0
 22122  4  0  0  0  0
121122  3  0  0  0  0
121123  4  0  0  0  0
123124  3  0  0  0  0
125126  3  0  0  0  0
125127  4  0  0  0  0
 82128  4  0  0  0  0
127128  3  0  0  0  0
124130  4  0  0  0  0
130131  4  0  0  0  0
131132  4  0  0  0  0
132133  2  0  0  0  0
133134  4  0  0  0  0
129135  1  0  0  0  0
131135  4  0  0  0  0
134135  4  0  0  0  0
134136  4  0  0  0  0
136137  1  0  0  0  0
137138  4  0  0  0  0
138139  4  0  0  0  0
139140  4  0  0  0  0
140141  1  0  0  0  0
141142  2  0  0  0  0
140143  4  0  0  0  0
137144  4  0  0  0  0
143144  4  0  0  0  0
136145  4  0  0  0  0
145146  4  0  0  0  0
146147  2  0  0  0  0
129148  1  0  0  0  0
145148  4  0  0  0  0
147149  4  0  0  0  0
148149  4  0  0  0  0
126150  4  0  0  0  0
149150  4  0  0  0  0
150151  4  0  0  0  0
151152  4  0  0  0  0
152153  2  0  0  0  0
153154  4  0  0  0  0
129155  1  0  0  0  0
151155  4  0  0  0  0
154155  4  0  0  0  0
154156  4  0  0  0  0
156157  1  0  0  0  0
157158  4  0  0  0  0
158159  4  0  0  0  0
159160  4  0  0  0  0
160161  1  0  0  0  0
161162  2  0  0  0  0
160163  4  0  0  0  0
157164  4  0  0  0  0
163164  4  0  0  0  0
156165  4  0  0  0  0
165166  4  0  0  0  0
166167  2  0  0  0  0
130168  4  0  0  0  0
167168  4  0  0  0  0
129169  1  0  0  0  0
165169  4  0  0  0  0
168169  4  0  0  0  0
132170  1  0  0  0  0
133171  1  0  0  0  0
138172  1  0  0  0  0
139173  1  0  0  0  0
141174  1  0  0  0  0
143175  1  0  0  0  0
144176  1  0  0  0  0
146177  1  0  0  0  0
147178  1  0  0  0  0
152179  1  0  0  0  0
153180  1  0  0  0  0
158181  1  0  0  0  0
159182  1  0  0  0  0
161183  1  0  0  0  0
163184  1  0  0  0  0
164185  1  0  0  0  0
166186  1  0  0  0  0
167187  1  0  0  0  0
M  END
