 xtb: 6.5.1 (b24c23e)
          07302215203D

132145  0     0  0            999 V2000
   13.1781   -0.1232    0.0434 C   0  0  0  0  0  0  0  0  0  0  0  0
   13.7892   -1.3583   -0.1294 C   0  0  0  0  0  0  0  0  0  0  0  0
   13.1404   -2.6162   -0.2789 C   0  0  0  0  0  0  0  0  0  0  0  0
   14.1044   -3.5698   -0.4479 C   0  0  0  0  0  0  0  0  0  0  0  0
   15.3732   -2.9235   -0.4146 C   0  0  0  0  0  0  0  0  0  0  0  0
   15.1327   -1.5950   -0.2093 N   0  0  0  0  0  0  0  0  0  0  0  0
   16.6374   -3.5110   -0.5396 C   0  0  0  0  0  0  0  0  0  0  0  0
   17.8529   -2.8289   -0.4441 C   0  0  0  0  0  0  0  0  0  0  0  0
   19.1505   -3.4531   -0.6310 C   0  0  0  0  0  0  0  0  0  0  0  0
   20.0703   -2.4821   -0.4555 C   0  0  0  0  0  0  0  0  0  0  0  0
   18.0059   -1.5011   -0.1852 N   0  0  0  0  0  0  0  0  0  0  0  0
   19.3332   -1.2649   -0.1754 C   0  0  0  0  0  0  0  0  0  0  0  0
   19.9694   -0.0308    0.0698 C   0  0  0  0  0  0  0  0  0  0  0  0
   19.3319    1.2050    0.2898 C   0  0  0  0  0  0  0  0  0  0  0  0
   19.9732    2.4458    0.5457 C   0  0  0  0  0  0  0  0  0  0  0  0
   19.0049    3.4029    0.6727 C   0  0  0  0  0  0  0  0  0  0  0  0
   17.7413    2.7751    0.4913 C   0  0  0  0  0  0  0  0  0  0  0  0
   16.4780    3.3742    0.5506 C   0  0  0  0  0  0  0  0  0  0  0  0
   16.4438    4.8413    0.7543 C   0  0  0  0  0  0  0  0  0  0  0  0
   17.0449    5.6973   -0.1729 C   0  0  0  0  0  0  0  0  0  0  0  0
   17.0024    7.0669    0.0108 C   0  0  0  0  0  0  0  0  0  0  0  0
   16.3631    7.6075    1.1282 C   0  0  0  0  0  0  0  0  0  0  0  0
   16.3417    9.0819    1.2796 C   0  0  0  0  0  0  0  0  0  0  0  0
   15.6948    9.4997    2.3783 O   0  0  0  0  0  0  0  0  0  0  0  0
   16.8478    9.8529    0.5043 O   0  0  0  0  0  0  0  0  0  0  0  0
   15.7669    6.7575    2.0602 C   0  0  0  0  0  0  0  0  0  0  0  0
   15.8064    5.3871    1.8718 C   0  0  0  0  0  0  0  0  0  0  0  0
   15.2615    2.6936    0.4294 C   0  0  0  0  0  0  0  0  0  0  0  0
   13.9567    3.3374    0.4475 C   0  0  0  0  0  0  0  0  0  0  0  0
   13.0439    2.3545    0.3138 C   0  0  0  0  0  0  0  0  0  0  0  0
   13.7898    1.1136    0.1980 C   0  0  0  0  0  0  0  0  0  0  0  0
   15.1220    1.3574    0.2626 N   0  0  0  0  0  0  0  0  0  0  0  0
   17.9904    1.4461    0.2737 N   0  0  0  0  0  0  0  0  0  0  0  0
   16.6696   -4.9704   -0.7969 C   0  0  0  0  0  0  0  0  0  0  0  0
   16.0766   -5.4967   -1.9476 C   0  0  0  0  0  0  0  0  0  0  0  0
   16.1089   -6.8576   -2.1967 C   0  0  0  0  0  0  0  0  0  0  0  0
   16.7318   -7.7176   -1.2917 C   0  0  0  0  0  0  0  0  0  0  0  0
   16.7929   -9.1822   -1.5124 C   0  0  0  0  0  0  0  0  0  0  0  0
   16.2032   -9.5786   -2.6507 O   0  0  0  0  0  0  0  0  0  0  0  0
   17.3155   -9.9629   -0.7583 O   0  0  0  0  0  0  0  0  0  0  0  0
   17.3214   -7.1968   -0.1382 C   0  0  0  0  0  0  0  0  0  0  0  0
   17.2927   -5.8362    0.1058 C   0  0  0  0  0  0  0  0  0  0  0  0
   12.0928   -0.1343    0.0486 H   0  0  0  0  0  0  0  0  0  0  0  0
   12.0720   -2.7598   -0.2539 H   0  0  0  0  0  0  0  0  0  0  0  0
   13.9558   -4.6298   -0.5750 H   0  0  0  0  0  0  0  0  0  0  0  0
   15.8558   -0.8882   -0.1271 H   0  0  0  0  0  0  0  0  0  0  0  0
   19.3139   -4.4898   -0.8767 H   0  0  0  0  0  0  0  0  0  0  0  0
   21.1444   -2.5543   -0.5147 H   0  0  0  0  0  0  0  0  0  0  0  0
   21.0401    2.5786    0.6250 H   0  0  0  0  0  0  0  0  0  0  0  0
   19.1495    4.4498    0.8843 H   0  0  0  0  0  0  0  0  0  0  0  0
   17.5280    5.2810   -1.0496 H   0  0  0  0  0  0  0  0  0  0  0  0
   17.4601    7.7366   -0.7090 H   0  0  0  0  0  0  0  0  0  0  0  0
   15.7253   10.4699    2.4027 H   0  0  0  0  0  0  0  0  0  0  0  0
   15.2743    7.1723    2.9317 H   0  0  0  0  0  0  0  0  0  0  0  0
   15.3544    4.7268    2.6032 H   0  0  0  0  0  0  0  0  0  0  0  0
   13.7870    4.3982    0.5372 H   0  0  0  0  0  0  0  0  0  0  0  0
   11.9684    2.4310    0.2815 H   0  0  0  0  0  0  0  0  0  0  0  0
   17.2706    0.7464    0.1262 H   0  0  0  0  0  0  0  0  0  0  0  0
   15.6052   -4.8276   -2.6587 H   0  0  0  0  0  0  0  0  0  0  0  0
   15.6532   -7.2566   -3.0952 H   0  0  0  0  0  0  0  0  0  0  0  0
   16.2887  -10.5432   -2.7213 H   0  0  0  0  0  0  0  0  0  0  0  0
   17.7994   -7.8747    0.5604 H   0  0  0  0  0  0  0  0  0  0  0  0
   17.7405   -5.4354    1.0080 H   0  0  0  0  0  0  0  0  0  0  0  0
   35.9351    0.0888    0.0983 C   0  0  0  0  0  0  0  0  0  0  0  0
   35.3241    1.2717    0.4933 C   0  0  0  0  0  0  0  0  0  0  0  0
   35.9732    2.4642    0.9201 C   0  0  0  0  0  0  0  0  0  0  0  0
   35.0096    3.3931    1.1947 C   0  0  0  0  0  0  0  0  0  0  0  0
   33.7405    2.8000    0.9370 C   0  0  0  0  0  0  0  0  0  0  0  0
   33.9807    1.5196    0.5275 N   0  0  0  0  0  0  0  0  0  0  0  0
   32.4763    3.3809    1.0901 C   0  0  0  0  0  0  0  0  0  0  0  0
   31.2608    2.7276    0.8719 C   0  0  0  0  0  0  0  0  0  0  0  0
   29.9629    3.3682    0.9880 C   0  0  0  0  0  0  0  0  0  0  0  0
   29.0435    2.4214    0.7094 C   0  0  0  0  0  0  0  0  0  0  0  0
   31.1082    1.4250    0.5066 N   0  0  0  0  0  0  0  0  0  0  0  0
   29.7809    1.2088    0.4107 C   0  0  0  0  0  0  0  0  0  0  0  0
   29.1449   -0.0036    0.0737 C   0  0  0  0  0  0  0  0  0  0  0  0
   29.7824   -1.2061   -0.2865 C   0  0  0  0  0  0  0  0  0  0  0  0
   29.1406   -2.4285   -0.6184 C   0  0  0  0  0  0  0  0  0  0  0  0
   30.1087   -3.3413   -0.9336 C   0  0  0  0  0  0  0  0  0  0  0  0
   31.3727   -2.7006   -0.8096 C   0  0  0  0  0  0  0  0  0  0  0  0
   32.6360   -3.2642   -1.0212 C   0  0  0  0  0  0  0  0  0  0  0  0
   32.6702   -4.6666   -1.4974 C   0  0  0  0  0  0  0  0  0  0  0  0
   32.0724   -5.0149   -2.7120 C   0  0  0  0  0  0  0  0  0  0  0  0
   32.1149   -6.3213   -3.1624 C   0  0  0  0  0  0  0  0  0  0  0  0
   32.7511   -7.3065   -2.4047 C   0  0  0  0  0  0  0  0  0  0  0  0
   32.7730   -8.6920   -2.9312 C   0  0  0  0  0  0  0  0  0  0  0  0
   33.4147   -9.5595   -2.1338 O   0  0  0  0  0  0  0  0  0  0  0  0
   32.2710   -9.0322   -3.9724 O   0  0  0  0  0  0  0  0  0  0  0  0
   33.3440   -6.9658   -1.1885 C   0  0  0  0  0  0  0  0  0  0  0  0
   33.3043   -5.6566   -0.7419 C   0  0  0  0  0  0  0  0  0  0  0  0
   33.8525   -2.6028   -0.8197 C   0  0  0  0  0  0  0  0  0  0  0  0
   35.1577   -3.1878   -1.0868 C   0  0  0  0  0  0  0  0  0  0  0  0
   36.0701   -2.2495   -0.7639 C   0  0  0  0  0  0  0  0  0  0  0  0
   35.3236   -1.0870   -0.3158 C   0  0  0  0  0  0  0  0  0  0  0  0
   33.9915   -1.3332   -0.3710 N   0  0  0  0  0  0  0  0  0  0  0  0
   31.1239   -1.4155   -0.4066 N   0  0  0  0  0  0  0  0  0  0  0  0
   32.4445    4.8008    1.5143 C   0  0  0  0  0  0  0  0  0  0  0  0
   33.0355    5.7873    0.7205 C   0  0  0  0  0  0  0  0  0  0  0  0
   33.0043    7.1154    1.1082 C   0  0  0  0  0  0  0  0  0  0  0  0
   32.3846    7.4782    2.3044 C   0  0  0  0  0  0  0  0  0  0  0  0
   32.3256    8.8860    2.7647 C   0  0  0  0  0  0  0  0  0  0  0  0
   32.9132    9.7509    1.9237 O   0  0  0  0  0  0  0  0  0  0  0  0
   31.8055    9.2456    3.7903 O   0  0  0  0  0  0  0  0  0  0  0  0
   31.7966    6.4954    3.1031 C   0  0  0  0  0  0  0  0  0  0  0  0
   31.8242    5.1699    2.7110 C   0  0  0  0  0  0  0  0  0  0  0  0
   37.0204    0.0959    0.1095 H   0  0  0  0  0  0  0  0  0  0  0  0
   37.0417    2.5814    1.0060 H   0  0  0  0  0  0  0  0  0  0  0  0
   35.1584    4.3986    1.5536 H   0  0  0  0  0  0  0  0  0  0  0  0
   33.2572    0.8506    0.2862 H   0  0  0  0  0  0  0  0  0  0  0  0
   29.7992    4.4044    1.2354 H   0  0  0  0  0  0  0  0  0  0  0  0
   27.9693    2.5117    0.6908 H   0  0  0  0  0  0  0  0  0  0  0  0
   28.0736   -2.5816   -0.6100 H   0  0  0  0  0  0  0  0  0  0  0  0
   29.9635   -4.3712   -1.2165 H   0  0  0  0  0  0  0  0  0  0  0  0
   31.5919   -4.2489   -3.3101 H   0  0  0  0  0  0  0  0  0  0  0  0
   31.6599   -6.5962   -4.1077 H   0  0  0  0  0  0  0  0  0  0  0  0
   33.3847  -10.4374   -2.5477 H   0  0  0  0  0  0  0  0  0  0  0  0
   33.8341   -7.7281   -0.5945 H   0  0  0  0  0  0  0  0  0  0  0  0
   33.7536   -5.3953    0.2095 H   0  0  0  0  0  0  0  0  0  0  0  0
   35.3281   -4.1771   -1.4800 H   0  0  0  0  0  0  0  0  0  0  0  0
   37.1458   -2.3045   -0.8233 H   0  0  0  0  0  0  0  0  0  0  0  0
   31.8442   -0.7251   -0.2216 H   0  0  0  0  0  0  0  0  0  0  0  0
   33.5046    5.5082   -0.2163 H   0  0  0  0  0  0  0  0  0  0  0  0
   33.4586    7.8750    0.4831 H   0  0  0  0  0  0  0  0  0  0  0  0
   32.8289   10.6446    2.2937 H   0  0  0  0  0  0  0  0  0  0  0  0
   31.3210    6.7879    4.0328 H   0  0  0  0  0  0  0  0  0  0  0  0
   31.3779    4.4070    3.3387 H   0  0  0  0  0  0  0  0  0  0  0  0
   25.1714   -0.0270    0.1050 C   0  0  0  0  0  0  0  0  0  0  0  0
   23.9430   -0.0214    0.1066 C   0  0  0  0  0  0  0  0  0  0  0  0
   22.5989   -0.0186    0.1007 C   0  0  0  0  0  0  0  0  0  0  0  0
   21.3749   -0.0195    0.0876 C   0  0  0  0  0  0  0  0  0  0  0  0
   26.5155   -0.0280    0.0968 C   0  0  0  0  0  0  0  0  0  0  0  0
   27.7395   -0.0223    0.0846 C   0  0  0  0  0  0  0  0  0  0  0  0
  1  2  4  0  0  0  0
  2  3  4  0  0  0  0
  3  4  2  0  0  0  0
  4  5  4  0  0  0  0
  2  6  4  0  0  0  0
  5  6  4  0  0  0  0
  5  7  4  0  0  0  0
  7  8  4  0  0  0  0
  8  9  1  0  0  0  0
  9 10  2  0  0  0  0
  8 11  4  0  0  0  0
 10 12  1  0  0  0  0
 11 12  4  0  0  0  0
 12 13  4  0  0  0  0
 13 14  4  0  0  0  0
 14 15  4  0  0  0  0
 15 16  2  0  0  0  0
 16 17  4  0  0  0  0
 17 18  4  0  0  0  0
 18 19  1  0  0  0  0
 19 20  4  0  0  0  0
 20 21  4  0  0  0  0
 21 22  4  0  0  0  0
 22 23  1  0  0  0  0
 23 24  4  0  0  0  0
 23 25  2  0  0  0  0
 22 26  4  0  0  0  0
 19 27  4  0  0  0  0
 26 27  4  0  0  0  0
 18 28  4  0  0  0  0
 28 29  1  0  0  0  0
 29 30  2  0  0  0  0
  1 31  4  0  0  0  0
 30 31  1  0  0  0  0
 28 32  4  0  0  0  0
 31 32  4  0  0  0  0
 14 33  4  0  0  0  0
 17 33  4  0  0  0  0
  7 34  1  0  0  0  0
 34 35  4  0  0  0  0
 35 36  4  0  0  0  0
 36 37  4  0  0  0  0
 37 38  1  0  0  0  0
 38 39  4  0  0  0  0
 38 40  2  0  0  0  0
 37 41  4  0  0  0  0
 34 42  4  0  0  0  0
 41 42  4  0  0  0  0
  1 43  1  0  0  0  0
  3 44  1  0  0  0  0
  4 45  1  0  0  0  0
  6 46  1  0  0  0  0
  9 47  1  0  0  0  0
 10 48  1  0  0  0  0
 15 49  1  0  0  0  0
 16 50  1  0  0  0  0
 20 51  1  0  0  0  0
 21 52  1  0  0  0  0
 24 53  1  0  0  0  0
 26 54  1  0  0  0  0
 27 55  1  0  0  0  0
 29 56  1  0  0  0  0
 30 57  1  0  0  0  0
 33 58  1  0  0  0  0
 35 59  1  0  0  0  0
 36 60  1  0  0  0  0
 39 61  1  0  0  0  0
 41 62  1  0  0  0  0
 42 63  1  0  0  0  0
 64 65  4  0  0  0  0
 65 66  4  0  0  0  0
 66 67  2  0  0  0  0
 67 68  4  0  0  0  0
 65 69  4  0  0  0  0
 68 69  4  0  0  0  0
 68 70  4  0  0  0  0
 70 71  4  0  0  0  0
 71 72  1  0  0  0  0
 72 73  2  0  0  0  0
 71 74  4  0  0  0  0
 73 75  1  0  0  0  0
 74 75  4  0  0  0  0
 75 76  4  0  0  0  0
 76 77  4  0  0  0  0
 77 78  4  0  0  0  0
 78 79  2  0  0  0  0
 79 80  4  0  0  0  0
 80 81  4  0  0  0  0
 81 82  1  0  0  0  0
 82 83  4  0  0  0  0
 83 84  4  0  0  0  0
 84 85  4  0  0  0  0
 85 86  1  0  0  0  0
 86 87  4  0  0  0  0
 86 88  2  0  0  0  0
 85 89  4  0  0  0  0
 82 90  4  0  0  0  0
 89 90  4  0  0  0  0
 81 91  4  0  0  0  0
 91 92  1  0  0  0  0
 92 93  2  0  0  0  0
 64 94  4  0  0  0  0
 93 94  1  0  0  0  0
 91 95  4  0  0  0  0
 94 95  4  0  0  0  0
 77 96  4  0  0  0  0
 80 96  4  0  0  0  0
 70 97  1  0  0  0  0
 97 98  4  0  0  0  0
 98 99  4  0  0  0  0
 99100  4  0  0  0  0
100101  1  0  0  0  0
101102  4  0  0  0  0
101103  2  0  0  0  0
100104  4  0  0  0  0
 97105  4  0  0  0  0
104105  4  0  0  0  0
 64106  1  0  0  0  0
 66107  1  0  0  0  0
 67108  1  0  0  0  0
 69109  1  0  0  0  0
 72110  1  0  0  0  0
 73111  1  0  0  0  0
 78112  1  0  0  0  0
 79113  1  0  0  0  0
 83114  1  0  0  0  0
 84115  1  0  0  0  0
 87116  1  0  0  0  0
 89117  1  0  0  0  0
 90118  1  0  0  0  0
 92119  1  0  0  0  0
 93120  1  0  0  0  0
 96121  1  0  0  0  0
 98122  1  0  0  0  0
 99123  1  0  0  0  0
102124  1  0  0  0  0
104125  1  0  0  0  0
105126  1  0  0  0  0
127128  3  0  0  0  0
128129  4  0  0  0  0
 13130  4  0  0  0  0
129130  3  0  0  0  0
127131  4  0  0  0  0
 76132  4  0  0  0  0
131132  3  0  0  0  0
M  END
