128

C 13.088328 -0.626913 0.561727
C 13.778873 -1.266788 -0.682596
C 13.129779 -1.795095 -1.772484
C 14.126398 -2.270222 -2.662063
C 15.351564 -2.027412 -2.081733
N 15.128867 -1.377151 -0.892012
C 16.774810 -2.440092 -2.651323
C 16.829768 -3.320153 -3.851164
C 17.396292 -2.809313 -5.035474
C 17.457269 -3.597434 -6.176763
O 18.012653 -3.140383 -7.338448
C 16.936637 -4.882493 -6.159361
O 16.983880 -5.655563 -7.290153
C 16.349828 -5.389437 -5.002108
O 15.813489 -6.646628 -5.017529
C 16.296708 -4.620767 -3.843074
C 17.904878 -1.947873 -2.067259
C 19.225370 -2.406221 -2.447458
C 20.123531 -1.755802 -1.718050
N 18.087650 -1.021047 -1.074827
C 19.425110 -0.837080 -0.842579
C 20.087806 -0.000000 -0.000000
C 19.295085 1.044515 0.893348
C 19.785825 2.240418 1.380058
C 18.769515 2.836841 2.168625
C 17.677768 1.996481 2.126509
N 17.991768 0.931178 1.313419
C 16.292622 2.207450 2.864308
C 16.215113 3.238026 3.923770
C 16.688512 2.985457 5.221862
C 16.601083 3.982508 6.181138
O 17.051340 3.757358 7.451456
C 16.056465 5.219650 5.857792
O 15.977502 6.190891 6.822413
C 15.599976 5.479228 4.569984
O 15.084867 6.720233 4.313899
C 15.674586 4.495557 3.597139
C 15.201288 1.499251 2.467502
C 13.914387 1.599728 3.135011
C 13.051852 0.807822 2.505207
C 13.750158 0.188432 1.404738
N 15.043556 0.606115 1.446455
H 12.037631 -0.835423 0.728053
H 12.060155 -1.832217 -1.914474
H 13.965308 -2.748944 -3.616428
H 15.855140 -1.006987 -0.287422
H 17.778218 -1.789186 -5.023481
H 18.326610 -2.243140 -7.145798
H 17.469771 -5.093421 -7.917906
H 16.054978 -6.981324 -5.898217
H 15.834705 -5.012341 -2.940223
H 19.453425 -3.171610 -3.166291
H 21.183429 -1.910689 -1.781746
H 20.770707 2.643885 1.192732
H 18.831198 3.772492 2.704641
H 17.333476 0.206536 1.031939
H 17.117944 2.016385 5.460406
H 16.881423 4.598203 7.915953
H 15.562363 6.944162 6.346347
H 14.851387 6.736348 3.366332
H 15.319136 4.659412 2.581721
H 13.690103 2.193699 4.002421
H 12.017524 0.660889 2.761537
C 30.230588 -0.700115 0.467329
C 29.540043 0.345730 1.396839
C 30.189136 1.269778 2.179846
C 29.192518 2.013062 2.861480
C 27.967351 1.511453 2.481838
N 28.190048 0.521077 1.555862
C 26.544105 1.960370 3.023328
C 26.489148 2.903338 4.174387
C 25.922623 4.177536 3.974473
C 25.861647 5.086684 5.021910
O 25.306262 6.325579 4.868458
C 26.382278 4.749907 6.262176
O 26.335035 5.652635 7.292423
C 26.969088 3.502883 6.465054
O 27.505426 3.204834 7.686501
C 27.022208 2.571706 5.432038
C 25.414037 1.517236 2.401200
C 24.093545 1.771356 2.939770
C 23.195385 1.226839 2.128239
N 25.231266 0.786790 1.256483
C 23.893806 0.607654 1.020489
C 23.231109 0.000000 0.000000
C 24.023830 -0.605183 -1.234033
C 23.533090 -0.778841 -2.513452
C 24.549400 -1.394097 -3.287415
C 25.641148 -1.562519 -2.463028
N 25.327148 -1.040244 -1.228843
C 27.026293 -2.224567 -2.851034
C 27.103803 -2.994103 -4.112921
C 26.630404 -4.314203 -4.191473
C 26.717832 -4.995055 -5.395949
O 26.267575 -6.281429 -5.494141
C 27.262451 -4.373895 -6.513640
O 27.341414 -5.066349 -7.694449
C 27.718939 -3.062012 -6.444438
O 28.234049 -2.505034 -7.582616
C 27.644329 -2.364687 -5.249543
C 28.117628 -2.016565 -2.066346
C 29.404529 -2.638043 -2.329839
C 30.267064 -2.225218 -1.406073
C 29.568757 -1.313598 -0.532217
N 28.275359 -1.250017 -0.947135
H 31.281284 -0.913113 0.627867
H 31.258760 1.398055 2.251149
H 29.353608 2.818198 3.562724
H 27.463776 0.027677 1.046837
H 25.540698 4.419887 2.983479
H 24.992305 6.362368 3.951503
H 25.849145 6.400572 6.904264
H 27.263937 3.974468 8.229912
H 27.484211 1.599797 5.586513
H 23.865490 2.277008 3.860018
H 22.135487 1.249970 2.294107
H 22.548208 -0.496967 -2.857579
H 24.487718 -1.680300 -4.327051
H 25.985439 -0.948030 -0.456940
H 26.200972 -4.786493 -3.312299
H 26.437493 -6.521968 -6.424151
H 27.756553 -4.417740 -8.305485
H 28.467528 -1.583288 -7.362321
H 27.999779 -1.340447 -5.155444
H 29.628813 -3.330270 -3.121057
H 31.301391 -2.510057 -1.327581
C 21.048499 -0.000000 -0.000000
C 22.270417 -0.000000 -0.000000
