 xtb: 6.5.1 (b24c23e)
          07302201473D

126149  0     0  0            999 V2000
   14.6894   -0.0478   -0.0682 Co  0  0  0  0  0  0  0  0  0  0  0  0
   11.3215   -0.0417   -0.1896 C   0  0  0  0  0  0  0  0  0  0  0  0
   11.9701   -1.2520   -0.0697 C   0  0  0  0  0  0  0  0  0  0  0  0
   11.3028   -2.5138    0.0357 C   0  0  0  0  0  0  0  0  0  0  0  0
   12.2574   -3.4680   -0.0671 C   0  0  0  0  0  0  0  0  0  0  0  0
   13.5058   -2.7867   -0.2534 C   0  0  0  0  0  0  0  0  0  0  0  0
   13.3273   -1.4295   -0.1756 N   0  0  0  0  0  0  0  0  0  0  0  0
   14.6987   -3.4125   -0.5929 C   0  0  0  0  0  0  0  0  0  0  0  0
   14.7037   -4.8710   -0.8350 C   0  0  0  0  0  0  0  0  0  0  0  0
   15.5393   -5.7083   -0.0893 C   0  0  0  0  0  0  0  0  0  0  0  0
   15.5471   -7.0731   -0.3119 C   0  0  0  0  0  0  0  0  0  0  0  0
   14.7158   -7.6058   -1.2931 C   0  0  0  0  0  0  0  0  0  0  0  0
   14.7214   -9.0384   -1.5325 N   0  0  0  0  0  0  0  0  0  0  0  0
   13.9824   -9.4643   -2.3827 O   0  0  0  0  0  0  0  0  0  0  0  0
   15.4637   -9.7123   -0.8654 O   0  0  0  0  0  0  0  0  0  0  0  0
   13.8791   -6.7897   -2.0492 C   0  0  0  0  0  0  0  0  0  0  0  0
   13.8752   -5.4268   -1.8152 C   0  0  0  0  0  0  0  0  0  0  0  0
   15.8848   -2.7038   -0.7275 C   0  0  0  0  0  0  0  0  0  0  0  0
   17.1254   -3.2758   -1.1566 C   0  0  0  0  0  0  0  0  0  0  0  0
   18.0734   -2.3217   -0.9913 C   0  0  0  0  0  0  0  0  0  0  0  0
   16.0628   -1.3883   -0.3687 N   0  0  0  0  0  0  0  0  0  0  0  0
   17.4088   -1.1703   -0.4692 C   0  0  0  0  0  0  0  0  0  0  0  0
   18.0778   -0.0456    0.0204 C   0  0  0  0  0  0  0  0  0  0  0  0
   17.3868    1.0685    0.5038 C   0  0  0  0  0  0  0  0  0  0  0  0
   18.0257    2.2089    1.0798 C   0  0  0  0  0  0  0  0  0  0  0  0
   17.0644    3.1487    1.2491 C   0  0  0  0  0  0  0  0  0  0  0  0
   15.8440    2.5834    0.7569 C   0  0  0  0  0  0  0  0  0  0  0  0
   16.0424    1.2774    0.3719 N   0  0  0  0  0  0  0  0  0  0  0  0
   14.6676    3.2962    0.5739 C   0  0  0  0  0  0  0  0  0  0  0  0
   14.6526    4.7477    0.8565 C   0  0  0  0  0  0  0  0  0  0  0  0
   13.7615    5.2723    1.7979 C   0  0  0  0  0  0  0  0  0  0  0  0
   13.7430    6.6282    2.0692 C   0  0  0  0  0  0  0  0  0  0  0  0
   14.6191    7.4686    1.3882 C   0  0  0  0  0  0  0  0  0  0  0  0
   14.6014    8.8941    1.6665 N   0  0  0  0  0  0  0  0  0  0  0  0
   13.8121    9.2925    2.4841 O   0  0  0  0  0  0  0  0  0  0  0  0
   15.3775    9.5895    1.0632 O   0  0  0  0  0  0  0  0  0  0  0  0
   15.5114    6.9672    0.4448 C   0  0  0  0  0  0  0  0  0  0  0  0
   15.5260    5.6089    0.1852 C   0  0  0  0  0  0  0  0  0  0  0  0
   13.5026    2.6856    0.1261 C   0  0  0  0  0  0  0  0  0  0  0  0
   12.2792    3.3792   -0.1543 C   0  0  0  0  0  0  0  0  0  0  0  0
   11.3355    2.4340   -0.3752 C   0  0  0  0  0  0  0  0  0  0  0  0
   11.9847    1.1657   -0.2384 C   0  0  0  0  0  0  0  0  0  0  0  0
   13.3257    1.3322    0.0037 N   0  0  0  0  0  0  0  0  0  0  0  0
   10.2392   -0.0388   -0.2401 H   0  0  0  0  0  0  0  0  0  0  0  0
   10.2390   -2.6331    0.1646 H   0  0  0  0  0  0  0  0  0  0  0  0
   12.1403   -4.5386   -0.0254 H   0  0  0  0  0  0  0  0  0  0  0  0
   16.1723   -5.2829    0.6807 H   0  0  0  0  0  0  0  0  0  0  0  0
   16.1859   -7.7307    0.2652 H   0  0  0  0  0  0  0  0  0  0  0  0
   13.2459   -7.2286   -2.8108 H   0  0  0  0  0  0  0  0  0  0  0  0
   13.2392   -4.7793   -2.4073 H   0  0  0  0  0  0  0  0  0  0  0  0
   17.2449   -4.2773   -1.5364 H   0  0  0  0  0  0  0  0  0  0  0  0
   19.1312   -2.3801   -1.1903 H   0  0  0  0  0  0  0  0  0  0  0  0
   19.0762    2.2684    1.3140 H   0  0  0  0  0  0  0  0  0  0  0  0
   17.1632    4.1383    1.6644 H   0  0  0  0  0  0  0  0  0  0  0  0
   13.0928    4.6059    2.3300 H   0  0  0  0  0  0  0  0  0  0  0  0
   13.0609    7.0431    2.8015 H   0  0  0  0  0  0  0  0  0  0  0  0
   16.1796    7.6434   -0.0748 H   0  0  0  0  0  0  0  0  0  0  0  0
   16.2068    5.2083   -0.5567 H   0  0  0  0  0  0  0  0  0  0  0  0
   12.1705    4.4514   -0.1763 H   0  0  0  0  0  0  0  0  0  0  0  0
   10.2893    2.5636   -0.6014 H   0  0  0  0  0  0  0  0  0  0  0  0
   30.6390    0.0696   -0.0466 Co  0  0  0  0  0  0  0  0  0  0  0  0
   34.0099    0.1108   -0.1670 C   0  0  0  0  0  0  0  0  0  0  0  0
   33.3615    1.1958    0.3824 C   0  0  0  0  0  0  0  0  0  0  0  0
   34.0322    2.3342    0.9327 C   0  0  0  0  0  0  0  0  0  0  0  0
   33.0778    3.2569    1.1968 C   0  0  0  0  0  0  0  0  0  0  0  0
   31.8264    2.6862    0.7903 C   0  0  0  0  0  0  0  0  0  0  0  0
   32.0036    1.3960    0.3609 N   0  0  0  0  0  0  0  0  0  0  0  0
   30.6296    3.3880    0.7293 C   0  0  0  0  0  0  0  0  0  0  0  0
   30.6245    4.8311    1.0537 C   0  0  0  0  0  0  0  0  0  0  0  0
   29.8198    5.3197    2.0874 C   0  0  0  0  0  0  0  0  0  0  0  0
   29.8127    6.6680    2.3952 C   0  0  0  0  0  0  0  0  0  0  0  0
   30.6129    7.5367    1.6586 C   0  0  0  0  0  0  0  0  0  0  0  0
   30.6076    8.9541    1.9760 N   0  0  0  0  0  0  0  0  0  0  0  0
   31.3165    9.6746    1.3213 O   0  0  0  0  0  0  0  0  0  0  0  0
   29.8939    9.3216    2.8736 O   0  0  0  0  0  0  0  0  0  0  0  0
   31.4181    7.0713    0.6229 C   0  0  0  0  0  0  0  0  0  0  0  0
   31.4223    5.7205    0.3270 C   0  0  0  0  0  0  0  0  0  0  0  0
   29.4397    2.7788    0.3566 C   0  0  0  0  0  0  0  0  0  0  0  0
   28.1957    3.4696    0.1963 C   0  0  0  0  0  0  0  0  0  0  0  0
   27.2477    2.5238   -0.0098 C   0  0  0  0  0  0  0  0  0  0  0  0
   29.2630    1.4258    0.1850 N   0  0  0  0  0  0  0  0  0  0  0  0
   27.9157    1.2615    0.0196 C   0  0  0  0  0  0  0  0  0  0  0  0
   27.2472    0.0350    0.0329 C   0  0  0  0  0  0  0  0  0  0  0  0
   27.9372   -1.1797    0.0454 C   0  0  0  0  0  0  0  0  0  0  0  0
   27.2937   -2.4523    0.1303 C   0  0  0  0  0  0  0  0  0  0  0  0
   28.2546   -3.3872   -0.0647 C   0  0  0  0  0  0  0  0  0  0  0  0
   29.4795   -2.6790   -0.2863 C   0  0  0  0  0  0  0  0  0  0  0  0
   29.2829   -1.3243   -0.1452 N   0  0  0  0  0  0  0  0  0  0  0  0
   30.6608   -3.2742   -0.7039 C   0  0  0  0  0  0  0  0  0  0  0  0
   30.6753   -4.7265   -0.9849 C   0  0  0  0  0  0  0  0  0  0  0  0
   31.5362   -5.5715   -0.2779 C   0  0  0  0  0  0  0  0  0  0  0  0
   31.5533   -6.9305   -0.5332 C   0  0  0  0  0  0  0  0  0  0  0  0
   30.7072   -7.4483   -1.5098 C   0  0  0  0  0  0  0  0  0  0  0  0
   30.7235   -8.8745   -1.7845 N   0  0  0  0  0  0  0  0  0  0  0  0
   31.4836   -9.5564   -1.1461 O   0  0  0  0  0  0  0  0  0  0  0  0
   29.9771   -9.2870   -2.6347 O   0  0  0  0  0  0  0  0  0  0  0  0
   29.8459   -6.6236   -2.2279 C   0  0  0  0  0  0  0  0  0  0  0  0
   29.8314   -5.2670   -1.9599 C   0  0  0  0  0  0  0  0  0  0  0  0
   31.8310   -2.5451   -0.8733 C   0  0  0  0  0  0  0  0  0  0  0  0
   33.0589   -3.0919   -1.3727 C   0  0  0  0  0  0  0  0  0  0  0  0
   34.0021   -2.1320   -1.2270 C   0  0  0  0  0  0  0  0  0  0  0  0
   33.3480   -0.9989   -0.6464 C   0  0  0  0  0  0  0  0  0  0  0  0
   32.0057   -1.2407   -0.4909 N   0  0  0  0  0  0  0  0  0  0  0  0
   35.0921    0.1275   -0.2166 H   0  0  0  0  0  0  0  0  0  0  0  0
   35.0977    2.4012    1.0837 H   0  0  0  0  0  0  0  0  0  0  0  0
   33.1967    4.2392    1.6242 H   0  0  0  0  0  0  0  0  0  0  0  0
   29.2103    4.6313    2.6610 H   0  0  0  0  0  0  0  0  0  0  0  0
   29.1980    7.0554    3.1988 H   0  0  0  0  0  0  0  0  0  0  0  0
   32.0275    7.7691    0.0613 H   0  0  0  0  0  0  0  0  0  0  0  0
   32.0347    5.3475   -0.4856 H   0  0  0  0  0  0  0  0  0  0  0  0
   28.0745    4.5398    0.2354 H   0  0  0  0  0  0  0  0  0  0  0  0
   26.1879    2.6519   -0.1594 H   0  0  0  0  0  0  0  0  0  0  0  0
   26.2407   -2.5945    0.3119 H   0  0  0  0  0  0  0  0  0  0  0  0
   28.1533   -4.4601   -0.0646 H   0  0  0  0  0  0  0  0  0  0  0  0
   32.1822   -5.1572    0.4873 H   0  0  0  0  0  0  0  0  0  0  0  0
   32.2113   -7.5946    0.0143 H   0  0  0  0  0  0  0  0  0  0  0  0
   29.2010   -7.0511   -2.9863 H   0  0  0  0  0  0  0  0  0  0  0  0
   29.1740   -4.6125   -2.5204 H   0  0  0  0  0  0  0  0  0  0  0  0
   33.1703   -4.0839   -1.7795 H   0  0  0  0  0  0  0  0  0  0  0  0
   35.0508   -2.1716   -1.4744 H   0  0  0  0  0  0  0  0  0  0  0  0
   23.2768   -0.0021    0.0408 C   0  0  0  0  0  0  0  0  0  0  0  0
   22.0481   -0.0145    0.0406 C   0  0  0  0  0  0  0  0  0  0  0  0
   20.7046   -0.0278    0.0358 C   0  0  0  0  0  0  0  0  0  0  0  0
   19.4805   -0.0363    0.0328 C   0  0  0  0  0  0  0  0  0  0  0  0
   24.6203    0.0124    0.0408 C   0  0  0  0  0  0  0  0  0  0  0  0
   25.8443    0.0216    0.0408 C   0  0  0  0  0  0  0  0  0  0  0  0
  2  3  4  0  0  0  0
  3  4  1  0  0  0  0
  4  5  2  0  0  0  0
  5  6  4  0  0  0  0
  1  7  1  0  0  0  0
  3  7  4  0  0  0  0
  6  7  4  0  0  0  0
  6  8  4  0  0  0  0
  8  9  1  0  0  0  0
  9 10  4  0  0  0  0
 10 11  4  0  0  0  0
 11 12  4  0  0  0  0
 12 13  1  0  0  0  0
 13 14  2  0  0  0  0
 13 15  2  0  0  0  0
 14 15  1  0  0  0  0
 12 16  4  0  0  0  0
  9 17  4  0  0  0  0
 16 17  4  0  0  0  0
  8 18  4  0  0  0  0
 18 19  4  0  0  0  0
 19 20  2  0  0  0  0
  1 21  1  0  0  0  0
 18 21  4  0  0  0  0
 20 22  4  0  0  0  0
 21 22  4  0  0  0  0
 22 23  4  0  0  0  0
 23 24  4  0  0  0  0
 24 25  4  0  0  0  0
 25 26  2  0  0  0  0
 26 27  4  0  0  0  0
  1 28  1  0  0  0  0
 24 28  4  0  0  0  0
 27 28  4  0  0  0  0
 27 29  4  0  0  0  0
 29 30  1  0  0  0  0
 30 31  4  0  0  0  0
 31 32  4  0  0  0  0
 32 33  4  0  0  0  0
 33 34  1  0  0  0  0
 34 35  2  0  0  0  0
 34 36  2  0  0  0  0
 35 36  1  0  0  0  0
 33 37  4  0  0  0  0
 30 38  4  0  0  0  0
 37 38  4  0  0  0  0
 29 39  4  0  0  0  0
 39 40  4  0  0  0  0
 40 41  2  0  0  0  0
  2 42  4  0  0  0  0
 41 42  1  0  0  0  0
  1 43  1  0  0  0  0
 39 43  4  0  0  0  0
 42 43  4  0  0  0  0
  2 44  1  0  0  0  0
  4 45  1  0  0  0  0
  5 46  1  0  0  0  0
 10 47  1  0  0  0  0
 11 48  1  0  0  0  0
 16 49  1  0  0  0  0
 17 50  1  0  0  0  0
 19 51  1  0  0  0  0
 20 52  1  0  0  0  0
 25 53  1  0  0  0  0
 26 54  1  0  0  0  0
 31 55  1  0  0  0  0
 32 56  1  0  0  0  0
 37 57  1  0  0  0  0
 38 58  1  0  0  0  0
 40 59  1  0  0  0  0
 41 60  1  0  0  0  0
 62 63  4  0  0  0  0
 63 64  1  0  0  0  0
 64 65  2  0  0  0  0
 65 66  4  0  0  0  0
 61 67  1  0  0  0  0
 63 67  4  0  0  0  0
 66 67  4  0  0  0  0
 66 68  4  0  0  0  0
 68 69  1  0  0  0  0
 69 70  4  0  0  0  0
 70 71  4  0  0  0  0
 71 72  4  0  0  0  0
 72 73  1  0  0  0  0
 73 74  2  0  0  0  0
 73 75  2  0  0  0  0
 74 75  1  0  0  0  0
 72 76  4  0  0  0  0
 69 77  4  0  0  0  0
 76 77  4  0  0  0  0
 68 78  4  0  0  0  0
 78 79  4  0  0  0  0
 79 80  2  0  0  0  0
 61 81  1  0  0  0  0
 78 81  4  0  0  0  0
 80 82  4  0  0  0  0
 81 82  4  0  0  0  0
 82 83  4  0  0  0  0
 83 84  4  0  0  0  0
 84 85  4  0  0  0  0
 85 86  2  0  0  0  0
 86 87  4  0  0  0  0
 61 88  1  0  0  0  0
 84 88  4  0  0  0  0
 87 88  4  0  0  0  0
 87 89  4  0  0  0  0
 89 90  1  0  0  0  0
 90 91  4  0  0  0  0
 91 92  4  0  0  0  0
 92 93  4  0  0  0  0
 93 94  1  0  0  0  0
 94 95  2  0  0  0  0
 94 96  2  0  0  0  0
 95 96  1  0  0  0  0
 93 97  4  0  0  0  0
 90 98  4  0  0  0  0
 97 98  4  0  0  0  0
 89 99  4  0  0  0  0
 99100  4  0  0  0  0
100101  2  0  0  0  0
 62102  4  0  0  0  0
101102  1  0  0  0  0
 61103  1  0  0  0  0
 99103  4  0  0  0  0
102103  4  0  0  0  0
 62104  1  0  0  0  0
 64105  1  0  0  0  0
 65106  1  0  0  0  0
 70107  1  0  0  0  0
 71108  1  0  0  0  0
 76109  1  0  0  0  0
 77110  1  0  0  0  0
 79111  1  0  0  0  0
 80112  1  0  0  0  0
 85113  1  0  0  0  0
 86114  1  0  0  0  0
 91115  1  0  0  0  0
 92116  1  0  0  0  0
 97117  1  0  0  0  0
 98118  1  0  0  0  0
100119  1  0  0  0  0
101120  1  0  0  0  0
121122  3  0  0  0  0
122123  4  0  0  0  0
 23124  4  0  0  0  0
123124  3  0  0  0  0
121125  4  0  0  0  0
 83126  4  0  0  0  0
125126  3  0  0  0  0
M  END
