 xtb: 6.5.1 (b24c23e)
          07302206173D

252291  0     0  0            999 V2000
   57.8758   -0.0979    0.0123 Ni  0  0  0  0  0  0  0  0  0  0  0  0
   54.4959   -0.3563    0.0289 C   0  0  0  0  0  0  0  0  0  0  0  0
   55.1541   -0.3861    1.2404 C   0  0  0  0  0  0  0  0  0  0  0  0
   54.4836   -0.4996    2.4998 C   0  0  0  0  0  0  0  0  0  0  0  0
   55.4279   -0.3493    3.4571 C   0  0  0  0  0  0  0  0  0  0  0  0
   56.6793   -0.1620    2.7816 C   0  0  0  0  0  0  0  0  0  0  0  0
   56.5025   -0.2036    1.4213 N   0  0  0  0  0  0  0  0  0  0  0  0
   57.8762    0.1155    3.4291 C   0  0  0  0  0  0  0  0  0  0  0  0
   59.0773    0.2813    2.7516 C   0  0  0  0  0  0  0  0  0  0  0  0
   60.3328    0.5075    3.4028 C   0  0  0  0  0  0  0  0  0  0  0  0
   61.2868    0.4570    2.4429 C   0  0  0  0  0  0  0  0  0  0  0  0
   59.2602    0.1200    1.3977 N   0  0  0  0  0  0  0  0  0  0  0  0
   60.6139    0.2014    1.2084 C   0  0  0  0  0  0  0  0  0  0  0  0
   61.2807   -0.0203    0.0041 C   0  0  0  0  0  0  0  0  0  0  0  0
   60.6148   -0.2228   -1.2036 C   0  0  0  0  0  0  0  0  0  0  0  0
   61.2888   -0.4115   -2.4496 C   0  0  0  0  0  0  0  0  0  0  0  0
   60.3348   -0.4137   -3.4111 C   0  0  0  0  0  0  0  0  0  0  0  0
   59.0787   -0.2307   -2.7484 C   0  0  0  0  0  0  0  0  0  0  0  0
   57.8621   -0.1305   -3.4121 C   0  0  0  0  0  0  0  0  0  0  0  0
   57.8614   -0.1126   -4.8934 C   0  0  0  0  0  0  0  0  0  0  0  0
   57.2147   -1.1188   -5.6159 C   0  0  0  0  0  0  0  0  0  0  0  0
   57.2091   -1.0912   -6.9983 C   0  0  0  0  0  0  0  0  0  0  0  0
   57.8462   -0.0554   -7.6841 C   0  0  0  0  0  0  0  0  0  0  0  0
   57.8030   -0.0639   -9.1661 C   0  0  0  0  0  0  0  0  0  0  0  0
   58.4415    0.9737   -9.7279 O   0  0  0  0  0  0  0  0  0  0  0  0
   57.2521   -0.9083   -9.8255 O   0  0  0  0  0  0  0  0  0  0  0  0
   58.4967    0.9495   -6.9673 C   0  0  0  0  0  0  0  0  0  0  0  0
   58.5057    0.9170   -5.5838 C   0  0  0  0  0  0  0  0  0  0  0  0
   56.6471   -0.0657   -2.7426 C   0  0  0  0  0  0  0  0  0  0  0  0
   55.3738    0.0267   -3.3962 C   0  0  0  0  0  0  0  0  0  0  0  0
   54.4301   -0.0667   -2.4307 C   0  0  0  0  0  0  0  0  0  0  0  0
   55.1265   -0.1889   -1.1864 C   0  0  0  0  0  0  0  0  0  0  0  0
   56.4841   -0.1527   -1.3824 N   0  0  0  0  0  0  0  0  0  0  0  0
   59.2593   -0.1518   -1.3878 N   0  0  0  0  0  0  0  0  0  0  0  0
   57.8744    0.2156    4.9086 C   0  0  0  0  0  0  0  0  0  0  0  0
   57.5813   -0.9051    5.6895 C   0  0  0  0  0  0  0  0  0  0  0  0
   57.5738   -0.8107    7.0690 C   0  0  0  0  0  0  0  0  0  0  0  0
   57.8561    0.4063    7.6922 C   0  0  0  0  0  0  0  0  0  0  0  0
   57.8283    0.4584    9.1739 C   0  0  0  0  0  0  0  0  0  0  0  0
   58.1129    1.6701    9.6740 O   0  0  0  0  0  0  0  0  0  0  0  0
   57.5762   -0.4828    9.8824 O   0  0  0  0  0  0  0  0  0  0  0  0
   58.1513    1.5274    6.9162 C   0  0  0  0  0  0  0  0  0  0  0  0
   58.1619    1.4299    5.5354 C   0  0  0  0  0  0  0  0  0  0  0  0
   53.4157   -0.4434    0.0342 H   0  0  0  0  0  0  0  0  0  0  0  0
   53.4227   -0.6544    2.6152 H   0  0  0  0  0  0  0  0  0  0  0  0
   55.2992   -0.3499    4.5272 H   0  0  0  0  0  0  0  0  0  0  0  0
   60.4593    0.6625    4.4617 H   0  0  0  0  0  0  0  0  0  0  0  0
   62.3539    0.5701    2.5466 H   0  0  0  0  0  0  0  0  0  0  0  0
   62.3562   -0.5170   -2.5585 H   0  0  0  0  0  0  0  0  0  0  0  0
   60.4584   -0.5366   -4.4747 H   0  0  0  0  0  0  0  0  0  0  0  0
   56.7293   -1.9302   -5.0857 H   0  0  0  0  0  0  0  0  0  0  0  0
   56.7117   -1.8703   -7.5656 H   0  0  0  0  0  0  0  0  0  0  0  0
   58.3645    0.8959  -10.6927 H   0  0  0  0  0  0  0  0  0  0  0  0
   58.9917    1.7558   -7.4956 H   0  0  0  0  0  0  0  0  0  0  0  0
   59.0009    1.7040   -5.0262 H   0  0  0  0  0  0  0  0  0  0  0  0
   55.2331    0.1462   -4.4581 H   0  0  0  0  0  0  0  0  0  0  0  0
   53.3566   -0.0488   -2.5308 H   0  0  0  0  0  0  0  0  0  0  0  0
   57.3729   -1.8532    5.2072 H   0  0  0  0  0  0  0  0  0  0  0  0
   57.3500   -1.6767    7.6822 H   0  0  0  0  0  0  0  0  0  0  0  0
   58.0730    1.6200   10.6429 H   0  0  0  0  0  0  0  0  0  0  0  0
   58.3693    2.4742    7.3960 H   0  0  0  0  0  0  0  0  0  0  0  0
   58.3793    2.3037    4.9316 H   0  0  0  0  0  0  0  0  0  0  0  0
   90.4175   -0.0622   -0.0896 Ni  0  0  0  0  0  0  0  0  0  0  0  0
   93.8011   -0.2597   -0.1441 C   0  0  0  0  0  0  0  0  0  0  0  0
   93.1392   -0.1363   -1.3479 C   0  0  0  0  0  0  0  0  0  0  0  0
   93.8061   -0.0725   -2.6127 C   0  0  0  0  0  0  0  0  0  0  0  0
   92.8557    0.1884   -3.5398 C   0  0  0  0  0  0  0  0  0  0  0  0
   91.6051    0.2699   -2.8423 C   0  0  0  0  0  0  0  0  0  0  0  0
   91.7877    0.0488   -1.5002 N   0  0  0  0  0  0  0  0  0  0  0  0
   90.4047    0.6287   -3.4418 C   0  0  0  0  0  0  0  0  0  0  0  0
   89.2068    0.7026   -2.7428 C   0  0  0  0  0  0  0  0  0  0  0  0
   87.9501    1.0262   -3.3484 C   0  0  0  0  0  0  0  0  0  0  0  0
   87.0001    0.8456   -2.4000 C   0  0  0  0  0  0  0  0  0  0  0  0
   89.0282    0.3508   -1.4245 N   0  0  0  0  0  0  0  0  0  0  0  0
   87.6762    0.4104   -1.2190 C   0  0  0  0  0  0  0  0  0  0  0  0
   87.0117    0.0040   -0.0612 C   0  0  0  0  0  0  0  0  0  0  0  0
   87.6827   -0.3923    1.0960 C   0  0  0  0  0  0  0  0  0  0  0  0
   87.0144   -0.7859    2.2960 C   0  0  0  0  0  0  0  0  0  0  0  0
   87.9714   -0.9366    3.2429 C   0  0  0  0  0  0  0  0  0  0  0  0
   89.2234   -0.6358    2.6170 C   0  0  0  0  0  0  0  0  0  0  0  0
   90.4396   -0.6191    3.2886 C   0  0  0  0  0  0  0  0  0  0  0  0
   90.4442   -0.8303    4.7548 C   0  0  0  0  0  0  0  0  0  0  0  0
   91.1129   -1.9230    5.3128 C   0  0  0  0  0  0  0  0  0  0  0  0
   91.1232   -2.1088    6.6829 C   0  0  0  0  0  0  0  0  0  0  0  0
   90.4692   -1.2036    7.5207 C   0  0  0  0  0  0  0  0  0  0  0  0
   90.5184   -1.4398    8.9837 C   0  0  0  0  0  0  0  0  0  0  0  0
   89.8618   -0.5146    9.6993 O   0  0  0  0  0  0  0  0  0  0  0  0
   91.0894   -2.3642    9.5042 O   0  0  0  0  0  0  0  0  0  0  0  0
   89.7970   -0.1130    6.9681 C   0  0  0  0  0  0  0  0  0  0  0  0
   89.7831    0.0680    5.5962 C   0  0  0  0  0  0  0  0  0  0  0  0
   91.6515   -0.4256    2.6382 C   0  0  0  0  0  0  0  0  0  0  0  0
   92.9239   -0.4039    3.2996 C   0  0  0  0  0  0  0  0  0  0  0  0
   93.8671   -0.3282    2.3320 C   0  0  0  0  0  0  0  0  0  0  0  0
   93.1707   -0.2792    1.0827 C   0  0  0  0  0  0  0  0  0  0  0  0
   91.8131   -0.3026    1.2808 N   0  0  0  0  0  0  0  0  0  0  0  0
   89.0378   -0.3419    1.2865 N   0  0  0  0  0  0  0  0  0  0  0  0
   90.4005    0.9266   -4.8944 C   0  0  0  0  0  0  0  0  0  0  0  0
   90.6894   -0.0804   -5.8187 C   0  0  0  0  0  0  0  0  0  0  0  0
   90.6900    0.1961   -7.1735 C   0  0  0  0  0  0  0  0  0  0  0  0
   90.4051    1.4850   -7.6282 C   0  0  0  0  0  0  0  0  0  0  0  0
   90.4235    1.7328   -9.0899 C   0  0  0  0  0  0  0  0  0  0  0  0
   90.1437    3.0017   -9.4231 O   0  0  0  0  0  0  0  0  0  0  0  0
   90.6662    0.8929   -9.9188 O   0  0  0  0  0  0  0  0  0  0  0  0
   90.1155    2.4934   -6.7086 C   0  0  0  0  0  0  0  0  0  0  0  0
   90.1115    2.2135   -5.3530 C   0  0  0  0  0  0  0  0  0  0  0  0
   94.8827   -0.3243   -0.1621 H   0  0  0  0  0  0  0  0  0  0  0  0
   94.8685   -0.1959   -2.7499 H   0  0  0  0  0  0  0  0  0  0  0  0
   92.9798    0.3302   -4.6010 H   0  0  0  0  0  0  0  0  0  0  0  0
   87.8194    1.3312   -4.3737 H   0  0  0  0  0  0  0  0  0  0  0  0
   85.9333    0.9779   -2.4819 H   0  0  0  0  0  0  0  0  0  0  0  0
   85.9482   -0.9166    2.3891 H   0  0  0  0  0  0  0  0  0  0  0  0
   87.8520   -1.2314    4.2727 H   0  0  0  0  0  0  0  0  0  0  0  0
   91.6120   -2.6330    4.6632 H   0  0  0  0  0  0  0  0  0  0  0  0
   91.6374   -2.9563    7.1229 H   0  0  0  0  0  0  0  0  0  0  0  0
   89.9440   -0.7382   10.6407 H   0  0  0  0  0  0  0  0  0  0  0  0
   89.2892    0.5927    7.6149 H   0  0  0  0  0  0  0  0  0  0  0  0
   89.2713    0.9220    5.1671 H   0  0  0  0  0  0  0  0  0  0  0  0
   93.0642   -0.4432    4.3675 H   0  0  0  0  0  0  0  0  0  0  0  0
   94.9402   -0.3012    2.4348 H   0  0  0  0  0  0  0  0  0  0  0  0
   90.9002   -1.0840   -5.4673 H   0  0  0  0  0  0  0  0  0  0  0  0
   90.9101   -0.5809   -7.8972 H   0  0  0  0  0  0  0  0  0  0  0  0
   90.1784    3.0805  -10.3903 H   0  0  0  0  0  0  0  0  0  0  0  0
   89.8959    3.4955   -7.0575 H   0  0  0  0  0  0  0  0  0  0  0  0
   89.8982    2.9997   -4.6375 H   0  0  0  0  0  0  0  0  0  0  0  0
   62.6958   -0.0193    0.0033 C   0  0  0  0  0  0  0  0  0  0  0  0
   63.9101   -0.0193    0.0058 C   0  0  0  0  0  0  0  0  0  0  0  0
   73.5403    0.0006   -0.0158 C   0  0  0  0  0  0  0  0  0  0  0  0
   74.7569    0.0049   -0.0121 C   0  0  0  0  0  0  0  0  0  0  0  0
   84.3842    0.0067   -0.0483 C   0  0  0  0  0  0  0  0  0  0  0  0
   85.5992    0.0076   -0.0552 C   0  0  0  0  0  0  0  0  0  0  0  0
   68.7265   -0.0077   -0.0134 Ni  0  0  0  0  0  0  0  0  0  0  0  0
   65.3242   -0.0171    0.0008 C   0  0  0  0  0  0  0  0  0  0  0  0
   65.9973   -1.1997   -0.3072 C   0  0  0  0  0  0  0  0  0  0  0  0
   65.3445   -2.4205   -0.6599 C   0  0  0  0  0  0  0  0  0  0  0  0
   66.3018   -3.3797   -0.6897 C   0  0  0  0  0  0  0  0  0  0  0  0
   67.5365   -2.7428   -0.3433 C   0  0  0  0  0  0  0  0  0  0  0  0
   67.3462   -1.3925   -0.1701 N   0  0  0  0  0  0  0  0  0  0  0  0
   68.7301   -3.4160   -0.1084 C   0  0  0  0  0  0  0  0  0  0  0  0
   69.9214   -2.7524    0.1598 C   0  0  0  0  0  0  0  0  0  0  0  0
   71.1550   -3.4030    0.4816 C   0  0  0  0  0  0  0  0  0  0  0  0
   72.1094   -2.4407    0.5080 C   0  0  0  0  0  0  0  0  0  0  0  0
   70.1111   -1.3934    0.0562 N   0  0  0  0  0  0  0  0  0  0  0  0
   71.4576   -1.2055    0.2109 C   0  0  0  0  0  0  0  0  0  0  0  0
   72.1322   -0.0010   -0.0127 C   0  0  0  0  0  0  0  0  0  0  0  0
   71.4531    1.2008   -0.2362 C   0  0  0  0  0  0  0  0  0  0  0  0
   72.1007    2.4386   -0.5319 C   0  0  0  0  0  0  0  0  0  0  0  0
   71.1420    3.3969   -0.5106 C   0  0  0  0  0  0  0  0  0  0  0  0
   69.9101    2.7414   -0.1927 C   0  0  0  0  0  0  0  0  0  0  0  0
   68.7145    3.4002    0.0677 C   0  0  0  0  0  0  0  0  0  0  0  0
   68.7061    4.8799    0.0879 C   0  0  0  0  0  0  0  0  0  0  0  0
   69.5281    5.5814    0.9744 C   0  0  0  0  0  0  0  0  0  0  0  0
   69.5166    6.9638    0.9913 C   0  0  0  0  0  0  0  0  0  0  0  0
   68.6875    7.6714    0.1188 C   0  0  0  0  0  0  0  0  0  0  0  0
   68.7130    9.1530    0.1729 C   0  0  0  0  0  0  0  0  0  0  0  0
   67.8763    9.7365   -0.6983 O   0  0  0  0  0  0  0  0  0  0  0  0
   69.4089    9.7941    0.9185 O   0  0  0  0  0  0  0  0  0  0  0  0
   67.8670    6.9762   -0.7700 C   0  0  0  0  0  0  0  0  0  0  0  0
   67.8758    5.5925   -0.7814 C   0  0  0  0  0  0  0  0  0  0  0  0
   67.5246    2.7224    0.3084 C   0  0  0  0  0  0  0  0  0  0  0  0
   66.2889    3.3550    0.6582 C   0  0  0  0  0  0  0  0  0  0  0  0
   65.3375    2.3895    0.6472 C   0  0  0  0  0  0  0  0  0  0  0  0
   65.9947    1.1696    0.2991 C   0  0  0  0  0  0  0  0  0  0  0  0
   67.3411    1.3696    0.1474 N   0  0  0  0  0  0  0  0  0  0  0  0
   70.1053    1.3834   -0.0856 N   0  0  0  0  0  0  0  0  0  0  0  0
   68.7298   -4.8956   -0.1356 C   0  0  0  0  0  0  0  0  0  0  0  0
   67.8996   -5.6162    0.7276 C   0  0  0  0  0  0  0  0  0  0  0  0
   67.9040   -6.9985    0.7080 C   0  0  0  0  0  0  0  0  0  0  0  0
   68.7340   -7.6868   -0.1788 C   0  0  0  0  0  0  0  0  0  0  0  0
   68.7022   -9.1695   -0.1620 C   0  0  0  0  0  0  0  0  0  0  0  0
   69.5321   -9.7341   -1.0515 O   0  0  0  0  0  0  0  0  0  0  0  0
   68.0060   -9.8256    0.5700 O   0  0  0  0  0  0  0  0  0  0  0  0
   69.5619   -6.9725   -1.0452 C   0  0  0  0  0  0  0  0  0  0  0  0
   69.5603   -5.5888   -1.0200 C   0  0  0  0  0  0  0  0  0  0  0  0
   64.2877   -2.5168   -0.8503 H   0  0  0  0  0  0  0  0  0  0  0  0
   66.1917   -4.4257   -0.9247 H   0  0  0  0  0  0  0  0  0  0  0  0
   71.2665   -4.4588    0.6670 H   0  0  0  0  0  0  0  0  0  0  0  0
   73.1626   -2.5449    0.7116 H   0  0  0  0  0  0  0  0  0  0  0  0
   73.1545    2.5473   -0.7303 H   0  0  0  0  0  0  0  0  0  0  0  0
   71.2501    4.4531   -0.6958 H   0  0  0  0  0  0  0  0  0  0  0  0
   70.1626    5.0337    1.6618 H   0  0  0  0  0  0  0  0  0  0  0  0
   70.1474    7.5144    1.6805 H   0  0  0  0  0  0  0  0  0  0  0  0
   67.9519   10.6995   -0.5996 H   0  0  0  0  0  0  0  0  0  0  0  0
   67.2249    7.5214   -1.4517 H   0  0  0  0  0  0  0  0  0  0  0  0
   67.2477    5.0526   -1.4811 H   0  0  0  0  0  0  0  0  0  0  0  0
   66.1741    4.4027    0.8836 H   0  0  0  0  0  0  0  0  0  0  0  0
   64.2820    2.4807    0.8471 H   0  0  0  0  0  0  0  0  0  0  0  0
   67.2647   -5.0836    1.4265 H   0  0  0  0  0  0  0  0  0  0  0  0
   67.2673   -7.5638    1.3796 H   0  0  0  0  0  0  0  0  0  0  0  0
   69.4537  -10.6991   -0.9761 H   0  0  0  0  0  0  0  0  0  0  0  0
   70.2048   -7.5029   -1.7377 H   0  0  0  0  0  0  0  0  0  0  0  0
   70.1945   -5.0339   -1.7022 H   0  0  0  0  0  0  0  0  0  0  0  0
   79.5704    0.0075   -0.0244 Ni  0  0  0  0  0  0  0  0  0  0  0  0
   76.1650    0.0052   -0.0158 C   0  0  0  0  0  0  0  0  0  0  0  0
   76.8425   -1.2158   -0.0946 C   0  0  0  0  0  0  0  0  0  0  0  0
   76.1945   -2.4798   -0.2400 C   0  0  0  0  0  0  0  0  0  0  0  0
   77.1521   -3.4291   -0.0993 C   0  0  0  0  0  0  0  0  0  0  0  0
   78.3837   -2.7407    0.1406 C   0  0  0  0  0  0  0  0  0  0  0  0
   78.1897   -1.3798    0.0796 N   0  0  0  0  0  0  0  0  0  0  0  0
   79.5776   -3.3624    0.4868 C   0  0  0  0  0  0  0  0  0  0  0  0
   80.7681   -2.6608    0.6412 C   0  0  0  0  0  0  0  0  0  0  0  0
   82.0036   -3.2450    1.0670 C   0  0  0  0  0  0  0  0  0  0  0  0
   82.9574   -2.2923    0.9229 C   0  0  0  0  0  0  0  0  0  0  0  0
   80.9544   -1.3411    0.3036 N   0  0  0  0  0  0  0  0  0  0  0  0
   82.3017   -1.1273    0.4198 C   0  0  0  0  0  0  0  0  0  0  0  0
   82.9728    0.0078   -0.0398 C   0  0  0  0  0  0  0  0  0  0  0  0
   82.2971    1.1445   -0.4881 C   0  0  0  0  0  0  0  0  0  0  0  0
   82.9477    2.3124   -0.9911 C   0  0  0  0  0  0  0  0  0  0  0  0
   81.9929    3.2666   -1.1176 C   0  0  0  0  0  0  0  0  0  0  0  0
   80.7618    2.6801   -0.6824 C   0  0  0  0  0  0  0  0  0  0  0  0
   79.5719    3.3801   -0.5153 C   0  0  0  0  0  0  0  0  0  0  0  0
   79.5783    4.8469   -0.7102 C   0  0  0  0  0  0  0  0  0  0  0  0
   80.4202    5.6559    0.0583 C   0  0  0  0  0  0  0  0  0  0  0  0
   80.4256    7.0267   -0.1209 C   0  0  0  0  0  0  0  0  0  0  0  0
   79.5934    7.6146   -1.0754 C   0  0  0  0  0  0  0  0  0  0  0  0
   79.6393    9.0884   -1.2340 C   0  0  0  0  0  0  0  0  0  0  0  0
   78.7987    9.5538   -2.1698 O   0  0  0  0  0  0  0  0  0  0  0  0
   80.3550    9.8183   -0.5967 O   0  0  0  0  0  0  0  0  0  0  0  0
   78.7525    6.8117   -1.8465 C   0  0  0  0  0  0  0  0  0  0  0  0
   78.7447    5.4402   -1.6619 C   0  0  0  0  0  0  0  0  0  0  0  0
   78.3803    2.7550   -0.1680 C   0  0  0  0  0  0  0  0  0  0  0  0
   77.1481    3.4405    0.0777 C   0  0  0  0  0  0  0  0  0  0  0  0
   76.1920    2.4891    0.2148 C   0  0  0  0  0  0  0  0  0  0  0  0
   76.8416    1.2267    0.0629 C   0  0  0  0  0  0  0  0  0  0  0  0
   78.1881    1.3933   -0.1143 N   0  0  0  0  0  0  0  0  0  0  0  0
   80.9512    1.3583   -0.3556 N   0  0  0  0  0  0  0  0  0  0  0  0
   79.5835   -4.8280    0.6909 C   0  0  0  0  0  0  0  0  0  0  0  0
   78.7529   -5.4141    1.6500 C   0  0  0  0  0  0  0  0  0  0  0  0
   78.7581   -6.7844    1.8338 C   0  0  0  0  0  0  0  0  0  0  0  0
   79.5895   -7.5953    1.0587 C   0  0  0  0  0  0  0  0  0  0  0  0
   79.5534   -9.0600    1.2873 C   0  0  0  0  0  0  0  0  0  0  0  0
   80.3889   -9.7475    0.4947 O   0  0  0  0  0  0  0  0  0  0  0  0
   78.8493   -9.6039    2.0995 O   0  0  0  0  0  0  0  0  0  0  0  0
   80.4205   -7.0153    0.0998 C   0  0  0  0  0  0  0  0  0  0  0  0
   80.4179   -5.6431   -0.0787 C   0  0  0  0  0  0  0  0  0  0  0  0
   75.1413   -2.6111   -0.4276 H   0  0  0  0  0  0  0  0  0  0  0  0
   77.0434   -4.4999   -0.1554 H   0  0  0  0  0  0  0  0  0  0  0  0
   82.1170   -4.2538    1.4292 H   0  0  0  0  0  0  0  0  0  0  0  0
   84.0138   -2.3608    1.1274 H   0  0  0  0  0  0  0  0  0  0  0  0
   84.0017    2.3819   -1.2070 H   0  0  0  0  0  0  0  0  0  0  0  0
   82.1031    4.2778   -1.4739 H   0  0  0  0  0  0  0  0  0  0  0  0
   81.0574    5.2025    0.8090 H   0  0  0  0  0  0  0  0  0  0  0  0
   81.0721    7.6606    0.4759 H   0  0  0  0  0  0  0  0  0  0  0  0
   78.8880   10.5199   -2.2106 H   0  0  0  0  0  0  0  0  0  0  0  0
   78.1076    7.2636   -2.5909 H   0  0  0  0  0  0  0  0  0  0  0  0
   78.1014    4.8153   -2.2711 H   0  0  0  0  0  0  0  0  0  0  0  0
   77.0381    4.5108    0.1397 H   0  0  0  0  0  0  0  0  0  0  0  0
   75.1388    2.6179    0.4043 H   0  0  0  0  0  0  0  0  0  0  0  0
   78.1159   -4.7852    2.2614 H   0  0  0  0  0  0  0  0  0  0  0  0
   78.1198   -7.2455    2.5794 H   0  0  0  0  0  0  0  0  0  0  0  0
   80.3056  -10.6918    0.7047 H   0  0  0  0  0  0  0  0  0  0  0  0
   81.0651   -7.6411   -0.5060 H   0  0  0  0  0  0  0  0  0  0  0  0
   81.0532   -5.1940   -0.8338 H   0  0  0  0  0  0  0  0  0  0  0  0
  2  3  4  0  0  0  0
  3  4  4  0  0  0  0
  4  5  2  0  0  0  0
  5  6  4  0  0  0  0
  1  7  1  0  0  0  0
  3  7  4  0  0  0  0
  6  7  4  0  0  0  0
  6  8  4  0  0  0  0
  8  9  4  0  0  0  0
  9 10  4  0  0  0  0
 10 11  2  0  0  0  0
  1 12  1  0  0  0  0
  9 12  4  0  0  0  0
 11 13  4  0  0  0  0
 12 13  4  0  0  0  0
 13 14  4  0  0  0  0
 14 15  4  0  0  0  0
 15 16  4  0  0  0  0
 16 17  2  0  0  0  0
 17 18  4  0  0  0  0
 18 19  4  0  0  0  0
 19 20  1  0  0  0  0
 20 21  4  0  0  0  0
 21 22  4  0  0  0  0
 22 23  4  0  0  0  0
 23 24  1  0  0  0  0
 24 25  4  0  0  0  0
 24 26  2  0  0  0  0
 23 27  4  0  0  0  0
 20 28  4  0  0  0  0
 27 28  4  0  0  0  0
 19 29  4  0  0  0  0
 29 30  4  0  0  0  0
 30 31  2  0  0  0  0
  2 32  4  0  0  0  0
 31 32  4  0  0  0  0
  1 33  1  0  0  0  0
 29 33  4  0  0  0  0
 32 33  4  0  0  0  0
  1 34  1  0  0  0  0
 15 34  4  0  0  0  0
 18 34  4  0  0  0  0
  8 35  1  0  0  0  0
 35 36  4  0  0  0  0
 36 37  4  0  0  0  0
 37 38  4  0  0  0  0
 38 39  1  0  0  0  0
 39 40  4  0  0  0  0
 39 41  2  0  0  0  0
 38 42  4  0  0  0  0
 35 43  4  0  0  0  0
 42 43  4  0  0  0  0
  2 44  1  0  0  0  0
  4 45  1  0  0  0  0
  5 46  1  0  0  0  0
 10 47  1  0  0  0  0
 11 48  1  0  0  0  0
 16 49  1  0  0  0  0
 17 50  1  0  0  0  0
 21 51  1  0  0  0  0
 22 52  1  0  0  0  0
 25 53  1  0  0  0  0
 27 54  1  0  0  0  0
 28 55  1  0  0  0  0
 30 56  1  0  0  0  0
 31 57  1  0  0  0  0
 36 58  1  0  0  0  0
 37 59  1  0  0  0  0
 40 60  1  0  0  0  0
 42 61  1  0  0  0  0
 43 62  1  0  0  0  0
 64 65  4  0  0  0  0
 65 66  4  0  0  0  0
 66 67  2  0  0  0  0
 67 68  4  0  0  0  0
 63 69  1  0  0  0  0
 65 69  4  0  0  0  0
 68 69  4  0  0  0  0
 68 70  4  0  0  0  0
 70 71  4  0  0  0  0
 71 72  4  0  0  0  0
 72 73  2  0  0  0  0
 63 74  1  0  0  0  0
 71 74  4  0  0  0  0
 73 75  4  0  0  0  0
 74 75  4  0  0  0  0
 75 76  4  0  0  0  0
 76 77  4  0  0  0  0
 77 78  4  0  0  0  0
 78 79  2  0  0  0  0
 79 80  4  0  0  0  0
 80 81  4  0  0  0  0
 81 82  1  0  0  0  0
 82 83  4  0  0  0  0
 83 84  4  0  0  0  0
 84 85  4  0  0  0  0
 85 86  1  0  0  0  0
 86 87  4  0  0  0  0
 86 88  2  0  0  0  0
 85 89  4  0  0  0  0
 82 90  4  0  0  0  0
 89 90  4  0  0  0  0
 81 91  4  0  0  0  0
 91 92  4  0  0  0  0
 92 93  2  0  0  0  0
 64 94  4  0  0  0  0
 93 94  4  0  0  0  0
 63 95  1  0  0  0  0
 91 95  4  0  0  0  0
 94 95  4  0  0  0  0
 63 96  1  0  0  0  0
 77 96  4  0  0  0  0
 80 96  4  0  0  0  0
 70 97  1  0  0  0  0
 97 98  4  0  0  0  0
 98 99  4  0  0  0  0
 99100  4  0  0  0  0
100101  1  0  0  0  0
101102  4  0  0  0  0
101103  2  0  0  0  0
100104  4  0  0  0  0
 97105  4  0  0  0  0
104105  4  0  0  0  0
 64106  1  0  0  0  0
 66107  1  0  0  0  0
 67108  1  0  0  0  0
 72109  1  0  0  0  0
 73110  1  0  0  0  0
 78111  1  0  0  0  0
 79112  1  0  0  0  0
 83113  1  0  0  0  0
 84114  1  0  0  0  0
 87115  1  0  0  0  0
 89116  1  0  0  0  0
 90117  1  0  0  0  0
 92118  1  0  0  0  0
 93119  1  0  0  0  0
 98120  1  0  0  0  0
 99121  1  0  0  0  0
102122  1  0  0  0  0
104123  1  0  0  0  0
105124  1  0  0  0  0
 14125  1  0  0  0  0
125126  3  0  0  0  0
127128  3  0  0  0  0
 76130  1  0  0  0  0
129130  3  0  0  0  0
126132  1  0  0  0  0
132133  4  0  0  0  0
133134  4  0  0  0  0
134135  2  0  0  0  0
135136  4  0  0  0  0
131137  1  0  0  0  0
133137  4  0  0  0  0
136137  4  0  0  0  0
136138  4  0  0  0  0
138139  4  0  0  0  0
139140  4  0  0  0  0
140141  2  0  0  0  0
131142  1  0  0  0  0
139142  4  0  0  0  0
141143  4  0  0  0  0
142143  4  0  0  0  0
127144  4  0  0  0  0
143144  4  0  0  0  0
144145  4  0  0  0  0
145146  4  0  0  0  0
146147  2  0  0  0  0
147148  4  0  0  0  0
148149  4  0  0  0  0
149150  1  0  0  0  0
150151  4  0  0  0  0
151152  4  0  0  0  0
152153  4  0  0  0  0
153154  1  0  0  0  0
154155  4  0  0  0  0
154156  2  0  0  0  0
153157  4  0  0  0  0
150158  4  0  0  0  0
157158  4  0  0  0  0
149159  4  0  0  0  0
159160  4  0  0  0  0
160161  2  0  0  0  0
132162  4  0  0  0  0
161162  4  0  0  0  0
131163  1  0  0  0  0
159163  4  0  0  0  0
162163  4  0  0  0  0
131164  1  0  0  0  0
145164  4  0  0  0  0
148164  4  0  0  0  0
138165  1  0  0  0  0
165166  4  0  0  0  0
166167  4  0  0  0  0
167168  4  0  0  0  0
168169  1  0  0  0  0
169170  4  0  0  0  0
169171  2  0  0  0  0
168172  4  0  0  0  0
165173  4  0  0  0  0
172173  4  0  0  0  0
134174  1  0  0  0  0
135175  1  0  0  0  0
140176  1  0  0  0  0
141177  1  0  0  0  0
146178  1  0  0  0  0
147179  1  0  0  0  0
151180  1  0  0  0  0
152181  1  0  0  0  0
155182  1  0  0  0  0
157183  1  0  0  0  0
158184  1  0  0  0  0
160185  1  0  0  0  0
161186  1  0  0  0  0
166187  1  0  0  0  0
167188  1  0  0  0  0
170189  1  0  0  0  0
172190  1  0  0  0  0
173191  1  0  0  0  0
128193  4  0  0  0  0
193194  4  0  0  0  0
194195  4  0  0  0  0
195196  2  0  0  0  0
196197  4  0  0  0  0
192198  1  0  0  0  0
194198  4  0  0  0  0
197198  4  0  0  0  0
197199  4  0  0  0  0
199200  4  0  0  0  0
200201  4  0  0  0  0
201202  2  0  0  0  0
192203  1  0  0  0  0
200203  4  0  0  0  0
202204  4  0  0  0  0
203204  4  0  0  0  0
129205  1  0  0  0  0
204205  4  0  0  0  0
205206  4  0  0  0  0
206207  4  0  0  0  0
207208  2  0  0  0  0
208209  4  0  0  0  0
209210  4  0  0  0  0
210211  1  0  0  0  0
211212  4  0  0  0  0
212213  4  0  0  0  0
213214  4  0  0  0  0
214215  1  0  0  0  0
215216  4  0  0  0  0
215217  2  0  0  0  0
214218  4  0  0  0  0
211219  4  0  0  0  0
218219  4  0  0  0  0
210220  4  0  0  0  0
220221  4  0  0  0  0
221222  2  0  0  0  0
193223  4  0  0  0  0
222223  4  0  0  0  0
192224  1  0  0  0  0
220224  4  0  0  0  0
223224  4  0  0  0  0
192225  1  0  0  0  0
206225  4  0  0  0  0
209225  4  0  0  0  0
199226  1  0  0  0  0
226227  4  0  0  0  0
227228  4  0  0  0  0
228229  4  0  0  0  0
229230  1  0  0  0  0
230231  4  0  0  0  0
230232  2  0  0  0  0
229233  4  0  0  0  0
226234  4  0  0  0  0
233234  4  0  0  0  0
195235  1  0  0  0  0
196236  1  0  0  0  0
201237  1  0  0  0  0
202238  1  0  0  0  0
207239  1  0  0  0  0
208240  1  0  0  0  0
212241  1  0  0  0  0
213242  1  0  0  0  0
216243  1  0  0  0  0
218244  1  0  0  0  0
219245  1  0  0  0  0
221246  1  0  0  0  0
222247  1  0  0  0  0
227248  1  0  0  0  0
228249  1  0  0  0  0
231250  1  0  0  0  0
233251  1  0  0  0  0
234252  1  0  0  0  0
M  END
