 xtb: 6.5.1 (b24c23e)
          07292217313D

232271  0     0  0            999 V2000
   33.3015   -0.0215   -0.0272 Fe  0  0  0  0  0  0  0  0  0  0  0  0
   29.9136   -0.0517   -0.0455 C   0  0  0  0  0  0  0  0  0  0  0  0
   30.5697   -1.2654   -0.0437 C   0  0  0  0  0  0  0  0  0  0  0  0
   29.8981   -2.5301   -0.0502 C   0  0  0  0  0  0  0  0  0  0  0  0
   30.8553   -3.4786    0.0769 C   0  0  0  0  0  0  0  0  0  0  0  0
   32.1126   -2.7920    0.1543 C   0  0  0  0  0  0  0  0  0  0  0  0
   31.9250   -1.4396    0.0583 N   0  0  0  0  0  0  0  0  0  0  0  0
   33.3265   -3.4202    0.4094 C   0  0  0  0  0  0  0  0  0  0  0  0
   33.3368   -4.8916    0.5883 C   0  0  0  0  0  0  0  0  0  0  0  0
   33.6609   -5.4702    1.8142 C   0  0  0  0  0  0  0  0  0  0  0  0
   33.6558   -6.8515    1.9305 C   0  0  0  0  0  0  0  0  0  0  0  0
   33.3587   -7.6623    0.9202 N   0  0  0  0  0  0  0  0  0  0  0  0
   33.0505   -7.1178   -0.2525 C   0  0  0  0  0  0  0  0  0  0  0  0
   33.0235   -5.7485   -0.4656 C   0  0  0  0  0  0  0  0  0  0  0  0
   34.5281   -2.7332    0.5017 C   0  0  0  0  0  0  0  0  0  0  0  0
   35.7926   -3.3620    0.7449 C   0  0  0  0  0  0  0  0  0  0  0  0
   36.7372   -2.3980    0.6309 C   0  0  0  0  0  0  0  0  0  0  0  0
   34.7022   -1.3904    0.2629 N   0  0  0  0  0  0  0  0  0  0  0  0
   36.0494   -1.1861    0.3116 C   0  0  0  0  0  0  0  0  0  0  0  0
   36.7082    0.0075   -0.0061 C   0  0  0  0  0  0  0  0  0  0  0  0
   36.0300    1.1915   -0.3183 C   0  0  0  0  0  0  0  0  0  0  0  0
   36.6952    2.4081   -0.6659 C   0  0  0  0  0  0  0  0  0  0  0  0
   35.7356    3.3587   -0.7708 C   0  0  0  0  0  0  0  0  0  0  0  0
   34.4868    2.7191   -0.4806 C   0  0  0  0  0  0  0  0  0  0  0  0
   34.6815    1.3794   -0.2439 N   0  0  0  0  0  0  0  0  0  0  0  0
   33.2715    3.3853   -0.4083 C   0  0  0  0  0  0  0  0  0  0  0  0
   33.2609    4.8568   -0.5726 C   0  0  0  0  0  0  0  0  0  0  0  0
   32.5682    5.4657   -1.6184 C   0  0  0  0  0  0  0  0  0  0  0  0
   32.5917    6.8470   -1.7298 C   0  0  0  0  0  0  0  0  0  0  0  0
   33.2431    7.6317   -0.8775 N   0  0  0  0  0  0  0  0  0  0  0  0
   33.9038    7.0592    0.1237 C   0  0  0  0  0  0  0  0  0  0  0  0
   33.9450    5.6871    0.3145 C   0  0  0  0  0  0  0  0  0  0  0  0
   32.0639    2.7299   -0.1937 C   0  0  0  0  0  0  0  0  0  0  0  0
   30.7971    3.3940   -0.0844 C   0  0  0  0  0  0  0  0  0  0  0  0
   29.8547    2.4264    0.0073 C   0  0  0  0  0  0  0  0  0  0  0  0
   30.5472    1.1737   -0.0312 C   0  0  0  0  0  0  0  0  0  0  0  0
   31.9004    1.3732   -0.1144 N   0  0  0  0  0  0  0  0  0  0  0  0
   28.8295   -0.0617   -0.0517 H   0  0  0  0  0  0  0  0  0  0  0  0
   28.8298   -2.6546   -0.1295 H   0  0  0  0  0  0  0  0  0  0  0  0
   30.7329   -4.5482    0.1305 H   0  0  0  0  0  0  0  0  0  0  0  0
   33.8997   -4.8474    2.6680 H   0  0  0  0  0  0  0  0  0  0  0  0
   33.9008   -7.3264    2.8760 H   0  0  0  0  0  0  0  0  0  0  0  0
   32.8150   -7.8063   -1.0587 H   0  0  0  0  0  0  0  0  0  0  0  0
   32.7767   -5.3487   -1.4419 H   0  0  0  0  0  0  0  0  0  0  0  0
   35.9310   -4.4094    0.9574 H   0  0  0  0  0  0  0  0  0  0  0  0
   37.8065   -2.4868    0.7364 H   0  0  0  0  0  0  0  0  0  0  0  0
   37.7596    2.5069   -0.8053 H   0  0  0  0  0  0  0  0  0  0  0  0
   35.8517    4.3991   -1.0272 H   0  0  0  0  0  0  0  0  0  0  0  0
   32.0325    4.8650   -2.3437 H   0  0  0  0  0  0  0  0  0  0  0  0
   32.0639    7.3442   -2.5385 H   0  0  0  0  0  0  0  0  0  0  0  0
   34.4244    7.7267    0.8042 H   0  0  0  0  0  0  0  0  0  0  0  0
   34.4884    5.2646    1.1512 H   0  0  0  0  0  0  0  0  0  0  0  0
   30.6600    4.4631   -0.0777 H   0  0  0  0  0  0  0  0  0  0  0  0
   28.7849    2.5313    0.0944 H   0  0  0  0  0  0  0  0  0  0  0  0
   81.2482    0.0370   -0.0212 Fe  0  0  0  0  0  0  0  0  0  0  0  0
   84.6421    0.0493   -0.0554 C   0  0  0  0  0  0  0  0  0  0  0  0
   83.9920    1.2287   -0.3531 C   0  0  0  0  0  0  0  0  0  0  0  0
   84.6750    2.4499   -0.6569 C   0  0  0  0  0  0  0  0  0  0  0  0
   83.7211    3.3932   -0.8355 C   0  0  0  0  0  0  0  0  0  0  0  0
   82.4557    2.7432   -0.6503 C   0  0  0  0  0  0  0  0  0  0  0  0
   82.6349    1.4182   -0.3582 N   0  0  0  0  0  0  0  0  0  0  0  0
   81.2330    3.4022   -0.7068 C   0  0  0  0  0  0  0  0  0  0  0  0
   81.2269    4.8563   -0.9953 C   0  0  0  0  0  0  0  0  0  0  0  0
   80.7993    5.7798   -0.0427 C   0  0  0  0  0  0  0  0  0  0  0  0
   80.8138    7.1295   -0.3576 C   0  0  0  0  0  0  0  0  0  0  0  0
   81.2135    7.5937   -1.5371 N   0  0  0  0  0  0  0  0  0  0  0  0
   81.6198    6.7189   -2.4515 C   0  0  0  0  0  0  0  0  0  0  0  0
   81.6476    5.3512   -2.2286 C   0  0  0  0  0  0  0  0  0  0  0  0
   80.0184    2.7634   -0.5083 C   0  0  0  0  0  0  0  0  0  0  0  0
   78.7494    3.4220   -0.6047 C   0  0  0  0  0  0  0  0  0  0  0  0
   77.8018    2.4732   -0.4163 C   0  0  0  0  0  0  0  0  0  0  0  0
   79.8434    1.4219   -0.2626 N   0  0  0  0  0  0  0  0  0  0  0  0
   78.4938    1.2392   -0.2105 C   0  0  0  0  0  0  0  0  0  0  0  0
   77.8340    0.0212   -0.0082 C   0  0  0  0  0  0  0  0  0  0  0  0
   78.5076   -1.1886    0.1975 C   0  0  0  0  0  0  0  0  0  0  0  0
   77.8297   -2.4339    0.3801 C   0  0  0  0  0  0  0  0  0  0  0  0
   78.7872   -3.3717    0.5742 C   0  0  0  0  0  0  0  0  0  0  0  0
   80.0477   -2.6925    0.5183 C   0  0  0  0  0  0  0  0  0  0  0  0
   79.8588   -1.3541    0.2657 N   0  0  0  0  0  0  0  0  0  0  0  0
   81.2706   -3.3224    0.6952 C   0  0  0  0  0  0  0  0  0  0  0  0
   81.2823   -4.7726    0.9986 C   0  0  0  0  0  0  0  0  0  0  0  0
   81.8570   -5.6894    0.1193 C   0  0  0  0  0  0  0  0  0  0  0  0
   81.8418   -7.0367    0.4438 C   0  0  0  0  0  0  0  0  0  0  0  0
   81.3065   -7.5053    1.5664 N   0  0  0  0  0  0  0  0  0  0  0  0
   80.7591   -6.6374    2.4111 C   0  0  0  0  0  0  0  0  0  0  0  0
   80.7199   -5.2726    2.1721 C   0  0  0  0  0  0  0  0  0  0  0  0
   82.4875   -2.6570    0.5959 C   0  0  0  0  0  0  0  0  0  0  0  0
   83.7596   -3.2843    0.8109 C   0  0  0  0  0  0  0  0  0  0  0  0
   84.7032   -2.3384    0.5948 C   0  0  0  0  0  0  0  0  0  0  0  0
   84.0065   -1.1334    0.2595 C   0  0  0  0  0  0  0  0  0  0  0  0
   82.6513   -1.3352    0.2816 N   0  0  0  0  0  0  0  0  0  0  0  0
   85.7263    0.0542   -0.0622 H   0  0  0  0  0  0  0  0  0  0  0  0
   85.7470    2.5535   -0.7119 H   0  0  0  0  0  0  0  0  0  0  0  0
   83.8494    4.4391   -1.0620 H   0  0  0  0  0  0  0  0  0  0  0  0
   80.4733    5.4466    0.9353 H   0  0  0  0  0  0  0  0  0  0  0  0
   80.4897    7.8690    0.3688 H   0  0  0  0  0  0  0  0  0  0  0  0
   81.9377    7.1289   -3.4057 H   0  0  0  0  0  0  0  0  0  0  0  0
   81.9777    4.6737   -3.0070 H   0  0  0  0  0  0  0  0  0  0  0  0
   78.6122    4.4722   -0.8040 H   0  0  0  0  0  0  0  0  0  0  0  0
   76.7293    2.5819   -0.4200 H   0  0  0  0  0  0  0  0  0  0  0  0
   76.7592   -2.5590    0.3555 H   0  0  0  0  0  0  0  0  0  0  0  0
   78.6622   -4.4302    0.7331 H   0  0  0  0  0  0  0  0  0  0  0  0
   82.2960   -5.3533   -0.8125 H   0  0  0  0  0  0  0  0  0  0  0  0
   82.2794   -7.7706   -0.2268 H   0  0  0  0  0  0  0  0  0  0  0  0
   80.3315   -7.0507    3.3199 H   0  0  0  0  0  0  0  0  0  0  0  0
   80.2717   -4.6007    2.8942 H   0  0  0  0  0  0  0  0  0  0  0  0
   83.8987   -4.3141    1.0971 H   0  0  0  0  0  0  0  0  0  0  0  0
   85.7762   -2.4275    0.6564 H   0  0  0  0  0  0  0  0  0  0  0  0
   41.9064    0.0367   -0.0322 C   0  0  0  0  0  0  0  0  0  0  0  0
   40.6764    0.0303   -0.0235 C   0  0  0  0  0  0  0  0  0  0  0  0
   39.3348    0.0221   -0.0182 C   0  0  0  0  0  0  0  0  0  0  0  0
   38.1096    0.0171   -0.0137 C   0  0  0  0  0  0  0  0  0  0  0  0
   43.2478    0.0401   -0.0348 C   0  0  0  0  0  0  0  0  0  0  0  0
   44.4733    0.0387   -0.0376 C   0  0  0  0  0  0  0  0  0  0  0  0
   57.8965    0.0333   -0.0060 C   0  0  0  0  0  0  0  0  0  0  0  0
   56.6656    0.0318   -0.0104 C   0  0  0  0  0  0  0  0  0  0  0  0
   55.3263    0.0286   -0.0183 C   0  0  0  0  0  0  0  0  0  0  0  0
   54.1000    0.0240   -0.0246 C   0  0  0  0  0  0  0  0  0  0  0  0
   59.2358    0.0326   -0.0033 C   0  0  0  0  0  0  0  0  0  0  0  0
   60.4621    0.0293   -0.0014 C   0  0  0  0  0  0  0  0  0  0  0  0
   73.8669   -0.0021   -0.0139 C   0  0  0  0  0  0  0  0  0  0  0  0
   72.6364   -0.0045   -0.0118 C   0  0  0  0  0  0  0  0  0  0  0  0
   71.2959   -0.0076   -0.0127 C   0  0  0  0  0  0  0  0  0  0  0  0
   70.0699   -0.0115   -0.0123 C   0  0  0  0  0  0  0  0  0  0  0  0
   75.2076    0.0082   -0.0100 C   0  0  0  0  0  0  0  0  0  0  0  0
   76.4333    0.0124   -0.0107 C   0  0  0  0  0  0  0  0  0  0  0  0
   49.2880    0.0182   -0.0464 Fe  0  0  0  0  0  0  0  0  0  0  0  0
   45.8737    0.0331   -0.0410 C   0  0  0  0  0  0  0  0  0  0  0  0
   46.5418   -0.7453    0.9125 C   0  0  0  0  0  0  0  0  0  0  0  0
   45.8660   -1.5052    1.9163 C   0  0  0  0  0  0  0  0  0  0  0  0
   46.8188   -2.2052    2.5790 C   0  0  0  0  0  0  0  0  0  0  0  0
   48.0713   -1.8748    1.9686 C   0  0  0  0  0  0  0  0  0  0  0  0
   47.8887   -0.9464    0.9737 N   0  0  0  0  0  0  0  0  0  0  0  0
   49.2815   -2.4662    2.3108 C   0  0  0  0  0  0  0  0  0  0  0  0
   49.2775   -3.5423    3.3281 C   0  0  0  0  0  0  0  0  0  0  0  0
   48.5803   -4.7316    3.1200 C   0  0  0  0  0  0  0  0  0  0  0  0
   48.6102   -5.7117    4.0996 C   0  0  0  0  0  0  0  0  0  0  0  0
   49.2716   -5.5717    5.2439 N   0  0  0  0  0  0  0  0  0  0  0  0
   49.9356   -4.4394    5.4515 C   0  0  0  0  0  0  0  0  0  0  0  0
   49.9713   -3.4050    4.5297 C   0  0  0  0  0  0  0  0  0  0  0  0
   50.4942   -2.0948    1.7458 C   0  0  0  0  0  0  0  0  0  0  0  0
   51.7461   -2.7192    2.0530 C   0  0  0  0  0  0  0  0  0  0  0  0
   52.7028   -2.0152    1.4007 C   0  0  0  0  0  0  0  0  0  0  0  0
   50.6823   -1.0499    0.8737 N   0  0  0  0  0  0  0  0  0  0  0  0
   52.0297   -0.9740    0.6899 C   0  0  0  0  0  0  0  0  0  0  0  0
   52.7018    0.0205   -0.0333 C   0  0  0  0  0  0  0  0  0  0  0  0
   52.0340    1.0090   -0.7683 C   0  0  0  0  0  0  0  0  0  0  0  0
   52.7114    2.0430   -1.4857 C   0  0  0  0  0  0  0  0  0  0  0  0
   51.7594    2.7351   -2.1573 C   0  0  0  0  0  0  0  0  0  0  0  0
   50.5058    2.1136   -1.8514 C   0  0  0  0  0  0  0  0  0  0  0  0
   50.6882    1.0794   -0.9657 N   0  0  0  0  0  0  0  0  0  0  0  0
   49.2959    2.4832   -2.4234 C   0  0  0  0  0  0  0  0  0  0  0  0
   49.3002    3.5481   -3.4528 C   0  0  0  0  0  0  0  0  0  0  0  0
   49.9844    3.3871   -4.6568 C   0  0  0  0  0  0  0  0  0  0  0  0
   49.9577    4.4115   -5.5901 C   0  0  0  0  0  0  0  0  0  0  0  0
   49.3121    5.5559   -5.3907 N   0  0  0  0  0  0  0  0  0  0  0  0
   48.6607    5.7186   -4.2438 C   0  0  0  0  0  0  0  0  0  0  0  0
   48.6223    4.7499   -3.2532 C   0  0  0  0  0  0  0  0  0  0  0  0
   48.0818    1.9053   -2.0731 C   0  0  0  0  0  0  0  0  0  0  0  0
   46.8300    2.2451   -2.6797 C   0  0  0  0  0  0  0  0  0  0  0  0
   45.8726    1.5629   -2.0052 C   0  0  0  0  0  0  0  0  0  0  0  0
   46.5451    0.8025   -0.9996 C   0  0  0  0  0  0  0  0  0  0  0  0
   47.8939    0.9873   -1.0693 N   0  0  0  0  0  0  0  0  0  0  0  0
   44.8007   -1.4952    2.0807 H   0  0  0  0  0  0  0  0  0  0  0  0
   46.6945   -2.8815    3.4087 H   0  0  0  0  0  0  0  0  0  0  0  0
   48.0361   -4.8931    2.1972 H   0  0  0  0  0  0  0  0  0  0  0  0
   48.0793   -6.6486    3.9590 H   0  0  0  0  0  0  0  0  0  0  0  0
   50.4640   -4.3545    6.3965 H   0  0  0  0  0  0  0  0  0  0  0  0
   50.5175   -2.4946    4.7458 H   0  0  0  0  0  0  0  0  0  0  0  0
   51.8674   -3.5847    2.6836 H   0  0  0  0  0  0  0  0  0  0  0  0
   53.7689   -2.1747    1.3918 H   0  0  0  0  0  0  0  0  0  0  0  0
   53.7770    2.2048   -1.4694 H   0  0  0  0  0  0  0  0  0  0  0  0
   51.8846    3.5914   -2.7996 H   0  0  0  0  0  0  0  0  0  0  0  0
   50.5163    2.4666   -4.8656 H   0  0  0  0  0  0  0  0  0  0  0  0
   50.4780    4.3081   -6.5377 H   0  0  0  0  0  0  0  0  0  0  0  0
   48.1457    6.6653   -4.1098 H   0  0  0  0  0  0  0  0  0  0  0  0
   48.0867    4.9294   -2.3287 H   0  0  0  0  0  0  0  0  0  0  0  0
   46.7093    2.9164   -3.5142 H   0  0  0  0  0  0  0  0  0  0  0  0
   44.8062    1.5645   -2.1630 H   0  0  0  0  0  0  0  0  0  0  0  0
   65.2652   -0.0008   -0.0185 Fe  0  0  0  0  0  0  0  0  0  0  0  0
   61.8599    0.0223   -0.0048 C   0  0  0  0  0  0  0  0  0  0  0  0
   62.5309   -0.7260    0.9724 C   0  0  0  0  0  0  0  0  0  0  0  0
   61.8649   -1.4478    2.0104 C   0  0  0  0  0  0  0  0  0  0  0  0
   62.8179   -2.1616    2.6587 C   0  0  0  0  0  0  0  0  0  0  0  0
   64.0603   -1.8800    2.0041 C   0  0  0  0  0  0  0  0  0  0  0  0
   63.8731   -0.9554    1.0056 N   0  0  0  0  0  0  0  0  0  0  0  0
   65.2582   -2.5262    2.2832 C   0  0  0  0  0  0  0  0  0  0  0  0
   65.2571   -3.6151    3.2853 C   0  0  0  0  0  0  0  0  0  0  0  0
   64.4718   -4.7551    3.1173 C   0  0  0  0  0  0  0  0  0  0  0  0
   64.5049   -5.7463    4.0856 C   0  0  0  0  0  0  0  0  0  0  0  0
   65.2506   -5.6626    5.1825 N   0  0  0  0  0  0  0  0  0  0  0  0
   66.0003   -4.5782    5.3514 C   0  0  0  0  0  0  0  0  0  0  0  0
   66.0399   -3.5377    4.4369 C   0  0  0  0  0  0  0  0  0  0  0  0
   66.4585   -2.1923    1.6659 C   0  0  0  0  0  0  0  0  0  0  0  0
   67.6972   -2.8762    1.8855 C   0  0  0  0  0  0  0  0  0  0  0  0
   68.6545   -2.1666    1.2382 C   0  0  0  0  0  0  0  0  0  0  0  0
   66.6512   -1.1115    0.8413 N   0  0  0  0  0  0  0  0  0  0  0  0
   67.9948   -1.0610    0.6189 C   0  0  0  0  0  0  0  0  0  0  0  0
   68.6710   -0.0100   -0.0159 C   0  0  0  0  0  0  0  0  0  0  0  0
   68.0017    1.0411   -0.6576 C   0  0  0  0  0  0  0  0  0  0  0  0
   68.6693    2.1347   -1.2899 C   0  0  0  0  0  0  0  0  0  0  0  0
   67.7178    2.8409   -1.9491 C   0  0  0  0  0  0  0  0  0  0  0  0
   66.4740    2.1694   -1.7203 C   0  0  0  0  0  0  0  0  0  0  0  0
   66.6585    1.0978   -0.8823 N   0  0  0  0  0  0  0  0  0  0  0  0
   65.2749    2.5095   -2.3363 C   0  0  0  0  0  0  0  0  0  0  0  0
   65.2827    3.5862   -3.3517 C   0  0  0  0  0  0  0  0  0  0  0  0
   66.0509    3.4790   -4.5105 C   0  0  0  0  0  0  0  0  0  0  0  0
   66.0202    4.5080   -5.4384 C   0  0  0  0  0  0  0  0  0  0  0  0
   65.2935    5.6087   -5.2751 N   0  0  0  0  0  0  0  0  0  0  0  0
   64.5625    5.7210   -4.1709 C   0  0  0  0  0  0  0  0  0  0  0  0
   64.5212    4.7430   -3.1896 C   0  0  0  0  0  0  0  0  0  0  0  0
   64.0705    1.8826   -2.0425 C   0  0  0  0  0  0  0  0  0  0  0  0
   62.8270    2.1773   -2.6891 C   0  0  0  0  0  0  0  0  0  0  0  0
   61.8690    1.4832   -2.0268 C   0  0  0  0  0  0  0  0  0  0  0  0
   62.5332    0.7593   -0.9891 C   0  0  0  0  0  0  0  0  0  0  0  0
   63.8780    0.9694   -1.0344 N   0  0  0  0  0  0  0  0  0  0  0  0
   60.8053   -1.4065    2.2044 H   0  0  0  0  0  0  0  0  0  0  0  0
   62.6992   -2.8192    3.5043 H   0  0  0  0  0  0  0  0  0  0  0  0
   63.8571   -4.8714    2.2328 H   0  0  0  0  0  0  0  0  0  0  0  0
   63.9059   -6.6454    3.9751 H   0  0  0  0  0  0  0  0  0  0  0  0
   66.5960   -4.5383    6.2585 H   0  0  0  0  0  0  0  0  0  0  0  0
   66.6568   -2.6665    4.6219 H   0  0  0  0  0  0  0  0  0  0  0  0
   67.8104   -3.7815    2.4592 H   0  0  0  0  0  0  0  0  0  0  0  0
   69.7135   -2.3602    1.1808 H   0  0  0  0  0  0  0  0  0  0  0  0
   69.7295    2.3219   -1.2346 H   0  0  0  0  0  0  0  0  0  0  0  0
   67.8378    3.7364   -2.5366 H   0  0  0  0  0  0  0  0  0  0  0  0
   66.6496    2.5941   -4.6903 H   0  0  0  0  0  0  0  0  0  0  0  0
   66.6047    4.4449   -6.3515 H   0  0  0  0  0  0  0  0  0  0  0  0
   63.9821    6.6329   -4.0655 H   0  0  0  0  0  0  0  0  0  0  0  0
   63.9186    4.8821   -2.3000 H   0  0  0  0  0  0  0  0  0  0  0  0
   62.7111    2.8300   -3.5389 H   0  0  0  0  0  0  0  0  0  0  0  0
   60.8073    1.4558   -2.2120 H   0  0  0  0  0  0  0  0  0  0  0  0
  2  3  4  0  0  0  0
  3  4  4  0  0  0  0
  4  5  2  0  0  0  0
  5  6  4  0  0  0  0
  1  7  1  0  0  0  0
  3  7  4  0  0  0  0
  6  7  4  0  0  0  0
  6  8  4  0  0  0  0
  8  9  1  0  0  0  0
  9 10  4  0  0  0  0
 10 11  4  0  0  0  0
 11 12  4  0  0  0  0
 12 13  4  0  0  0  0
  9 14  4  0  0  0  0
 13 14  4  0  0  0  0
  8 15  4  0  0  0  0
 15 16  4  0  0  0  0
 16 17  2  0  0  0  0
  1 18  1  0  0  0  0
 15 18  4  0  0  0  0
 17 19  4  0  0  0  0
 18 19  4  0  0  0  0
 19 20  4  0  0  0  0
 20 21  4  0  0  0  0
 21 22  4  0  0  0  0
 22 23  2  0  0  0  0
 23 24  4  0  0  0  0
  1 25  1  0  0  0  0
 21 25  4  0  0  0  0
 24 25  4  0  0  0  0
 24 26  4  0  0  0  0
 26 27  1  0  0  0  0
 27 28  4  0  0  0  0
 28 29  4  0  0  0  0
 29 30  4  0  0  0  0
 30 31  4  0  0  0  0
 27 32  4  0  0  0  0
 31 32  4  0  0  0  0
 26 33  4  0  0  0  0
 33 34  4  0  0  0  0
 34 35  2  0  0  0  0
  2 36  4  0  0  0  0
 35 36  4  0  0  0  0
  1 37  1  0  0  0  0
 33 37  4  0  0  0  0
 36 37  4  0  0  0  0
  2 38  1  0  0  0  0
  4 39  1  0  0  0  0
  5 40  1  0  0  0  0
 10 41  1  0  0  0  0
 11 42  1  0  0  0  0
 13 43  1  0  0  0  0
 14 44  1  0  0  0  0
 16 45  1  0  0  0  0
 17 46  1  0  0  0  0
 22 47  1  0  0  0  0
 23 48  1  0  0  0  0
 28 49  1  0  0  0  0
 29 50  1  0  0  0  0
 31 51  1  0  0  0  0
 32 52  1  0  0  0  0
 34 53  1  0  0  0  0
 35 54  1  0  0  0  0
 56 57  4  0  0  0  0
 57 58  4  0  0  0  0
 58 59  2  0  0  0  0
 59 60  4  0  0  0  0
 55 61  1  0  0  0  0
 57 61  4  0  0  0  0
 60 61  4  0  0  0  0
 60 62  4  0  0  0  0
 62 63  1  0  0  0  0
 63 64  4  0  0  0  0
 64 65  4  0  0  0  0
 65 66  4  0  0  0  0
 66 67  4  0  0  0  0
 63 68  4  0  0  0  0
 67 68  4  0  0  0  0
 62 69  4  0  0  0  0
 69 70  4  0  0  0  0
 70 71  2  0  0  0  0
 55 72  1  0  0  0  0
 69 72  4  0  0  0  0
 71 73  4  0  0  0  0
 72 73  4  0  0  0  0
 73 74  4  0  0  0  0
 74 75  4  0  0  0  0
 75 76  4  0  0  0  0
 76 77  2  0  0  0  0
 77 78  4  0  0  0  0
 55 79  1  0  0  0  0
 75 79  4  0  0  0  0
 78 79  4  0  0  0  0
 78 80  4  0  0  0  0
 80 81  1  0  0  0  0
 81 82  4  0  0  0  0
 82 83  4  0  0  0  0
 83 84  4  0  0  0  0
 84 85  4  0  0  0  0
 81 86  4  0  0  0  0
 85 86  4  0  0  0  0
 80 87  4  0  0  0  0
 87 88  4  0  0  0  0
 88 89  2  0  0  0  0
 56 90  4  0  0  0  0
 89 90  4  0  0  0  0
 55 91  1  0  0  0  0
 87 91  4  0  0  0  0
 90 91  4  0  0  0  0
 56 92  1  0  0  0  0
 58 93  1  0  0  0  0
 59 94  1  0  0  0  0
 64 95  1  0  0  0  0
 65 96  1  0  0  0  0
 67 97  1  0  0  0  0
 68 98  1  0  0  0  0
 70 99  1  0  0  0  0
 71100  1  0  0  0  0
 76101  1  0  0  0  0
 77102  1  0  0  0  0
 82103  1  0  0  0  0
 83104  1  0  0  0  0
 85105  1  0  0  0  0
 86106  1  0  0  0  0
 88107  1  0  0  0  0
 89108  1  0  0  0  0
109110  3  0  0  0  0
110111  4  0  0  0  0
 20112  4  0  0  0  0
111112  3  0  0  0  0
109113  4  0  0  0  0
113114  3  0  0  0  0
115116  3  0  0  0  0
116117  4  0  0  0  0
117118  3  0  0  0  0
115119  4  0  0  0  0
119120  3  0  0  0  0
121122  3  0  0  0  0
122123  4  0  0  0  0
123124  3  0  0  0  0
121125  4  0  0  0  0
 74126  4  0  0  0  0
125126  3  0  0  0  0
114128  4  0  0  0  0
128129  4  0  0  0  0
129130  4  0  0  0  0
130131  2  0  0  0  0
131132  4  0  0  0  0
127133  1  0  0  0  0
129133  4  0  0  0  0
132133  4  0  0  0  0
132134  4  0  0  0  0
134135  1  0  0  0  0
135136  4  0  0  0  0
136137  4  0  0  0  0
137138  4  0  0  0  0
138139  4  0  0  0  0
135140  4  0  0  0  0
139140  4  0  0  0  0
134141  4  0  0  0  0
141142  4  0  0  0  0
142143  2  0  0  0  0
127144  1  0  0  0  0
141144  4  0  0  0  0
143145  4  0  0  0  0
144145  4  0  0  0  0
118146  4  0  0  0  0
145146  4  0  0  0  0
146147  4  0  0  0  0
147148  4  0  0  0  0
148149  2  0  0  0  0
149150  4  0  0  0  0
127151  1  0  0  0  0
147151  4  0  0  0  0
150151  4  0  0  0  0
150152  4  0  0  0  0
152153  1  0  0  0  0
153154  4  0  0  0  0
154155  4  0  0  0  0
155156  4  0  0  0  0
156157  4  0  0  0  0
153158  4  0  0  0  0
157158  4  0  0  0  0
152159  4  0  0  0  0
159160  4  0  0  0  0
160161  2  0  0  0  0
128162  4  0  0  0  0
161162  4  0  0  0  0
127163  1  0  0  0  0
159163  4  0  0  0  0
162163  4  0  0  0  0
130164  1  0  0  0  0
131165  1  0  0  0  0
136166  1  0  0  0  0
137167  1  0  0  0  0
139168  1  0  0  0  0
140169  1  0  0  0  0
142170  1  0  0  0  0
143171  1  0  0  0  0
148172  1  0  0  0  0
149173  1  0  0  0  0
154174  1  0  0  0  0
155175  1  0  0  0  0
157176  1  0  0  0  0
158177  1  0  0  0  0
160178  1  0  0  0  0
161179  1  0  0  0  0
120181  4  0  0  0  0
181182  4  0  0  0  0
182183  4  0  0  0  0
183184  2  0  0  0  0
184185  4  0  0  0  0
180186  1  0  0  0  0
182186  4  0  0  0  0
185186  4  0  0  0  0
185187  4  0  0  0  0
187188  1  0  0  0  0
188189  4  0  0  0  0
189190  4  0  0  0  0
190191  4  0  0  0  0
191192  4  0  0  0  0
188193  4  0  0  0  0
192193  4  0  0  0  0
187194  4  0  0  0  0
194195  4  0  0  0  0
195196  2  0  0  0  0
180197  1  0  0  0  0
194197  4  0  0  0  0
196198  4  0  0  0  0
197198  4  0  0  0  0
124199  4  0  0  0  0
198199  4  0  0  0  0
199200  4  0  0  0  0
200201  4  0  0  0  0
201202  2  0  0  0  0
202203  4  0  0  0  0
180204  1  0  0  0  0
200204  4  0  0  0  0
203204  4  0  0  0  0
203205  4  0  0  0  0
205206  1  0  0  0  0
206207  4  0  0  0  0
207208  4  0  0  0  0
208209  4  0  0  0  0
209210  4  0  0  0  0
206211  4  0  0  0  0
210211  4  0  0  0  0
205212  4  0  0  0  0
212213  4  0  0  0  0
213214  2  0  0  0  0
181215  4  0  0  0  0
214215  4  0  0  0  0
180216  1  0  0  0  0
212216  4  0  0  0  0
215216  4  0  0  0  0
183217  1  0  0  0  0
184218  1  0  0  0  0
189219  1  0  0  0  0
190220  1  0  0  0  0
192221  1  0  0  0  0
193222  1  0  0  0  0
195223  1  0  0  0  0
196224  1  0  0  0  0
201225  1  0  0  0  0
202226  1  0  0  0  0
207227  1  0  0  0  0
208228  1  0  0  0  0
210229  1  0  0  0  0
211230  1  0  0  0  0
213231  1  0  0  0  0
214232  1  0  0  0  0
M  END
