620

C 116.115884 0.094023 -0.013535
C 116.840285 0.005411 1.363568
C 116.220391 -0.027452 2.592559
C 117.241073 -0.145153 3.569950
C 118.452444 -0.178821 2.903943
N 118.195644 -0.064745 1.561058
C 119.884429 -0.356711 3.561427
C 119.937644 -0.628287 5.017364
C 120.136088 0.409936 5.925485
C 120.170917 0.152214 7.303932
C 119.994600 -1.142190 7.831624
N 120.033927 -1.390015 9.216750
C 119.737081 -0.272114 10.108959
C 119.620712 -2.705675 9.694903
C 119.821569 -2.172776 6.886751
C 119.785704 -1.923976 5.506157
C 121.012167 -0.287474 2.802933
C 122.323695 -0.514283 3.374053
C 123.226009 -0.411933 2.406000
N 121.204124 -0.035336 1.468891
C 122.541054 -0.095421 1.168003
C 123.213832 0.084169 -0.000205
C 122.441426 0.475685 -1.332760
C 123.007527 1.032577 -2.464487
C 121.981839 1.180785 -3.429095
C 120.812079 0.725122 -2.856642
N 121.093971 0.335684 -1.567725
C 119.388244 0.680472 -3.558231
C 119.339547 0.829022 -5.029625
C 119.163889 2.083764 -5.610659
C 119.156925 2.225438 -7.005423
C 119.336322 1.129016 -7.871898
N 119.336574 1.294902 -9.271500
C 119.597491 0.124665 -10.104339
C 119.890923 2.553362 -9.770219
C 119.473168 -0.129680 -7.255685
C 119.485502 -0.279690 -5.860703
C 118.266001 0.513495 -2.811306
C 116.937449 0.470459 -3.397062
C 116.053760 0.313946 -2.416160
C 116.782133 0.246581 -1.172966
N 118.106750 0.360667 -1.461626
H 115.034420 0.022677 -0.022199
H 115.155861 0.017724 2.765419
H 117.107439 -0.209929 4.640032
H 118.900403 -0.033841 0.828474
H 120.271787 1.421751 5.550113
H 120.348626 1.006088 7.948229
H 118.754880 0.162750 9.890503
H 119.727029 -0.596314 11.156197
H 120.507659 0.503476 10.045964
H 118.573451 -2.908072 9.444174
H 120.259446 -3.497379 9.288566
H 119.718527 -2.774170 10.784381
H 119.705802 -3.207336 7.189527
H 119.644928 -2.741655 4.802815
H 122.541346 -0.741681 4.402646
H 124.283995 -0.538804 2.544997
H 124.046794 1.294240 -2.592529
H 122.085780 1.573307 -4.429769
H 120.400925 0.033083 -0.887700
H 119.030341 2.951458 -4.968178
H 118.992872 3.225869 -7.390814
H 119.493806 0.376417 -11.166192
H 120.613559 -0.255207 -9.949829
H 118.871229 -0.672802 -9.911944
H 119.245998 3.402184 -9.521828
H 119.962287 2.543344 -10.863595
H 120.898929 2.729216 -9.377666
H 119.591191 -1.037740 -7.835947
H 119.610398 -1.263925 -5.413627
H 116.702632 0.552697 -4.443450
H 114.986242 0.247212 -2.524167
C 235.773684 0.090625 0.015064
C 235.049283 0.327159 -1.344464
C 235.669176 0.583184 -2.546941
C 234.648495 0.697780 -3.524701
C 233.437124 0.508992 -2.885124
N 233.693923 0.305231 -1.552895
C 232.005139 0.490114 -3.565987
C 231.951924 0.567250 -5.045026
C 231.753479 1.789357 -5.684591
C 231.718651 1.861804 -7.085052
C 231.894968 0.727083 -7.901353
N 231.855640 0.810716 -9.305988
C 232.152486 2.106555 -9.911414
C 232.268855 -0.356277 -10.079110
C 232.067999 -0.496212 -7.224269
C 232.103864 -0.577835 -5.823813
C 230.877400 0.379696 -2.812386
C 229.565872 0.293024 -3.420751
C 228.663559 0.165693 -2.455666
N 230.685444 0.312225 -1.456403
C 229.348513 0.183309 -1.177970
C 228.675735 0.084169 -0.000205
C 229.448141 0.152545 1.386991
C 228.882040 0.428750 2.617701
C 229.907728 0.346808 3.590183
C 231.077488 0.037966 2.926896
N 230.795596 -0.038615 1.582611
C 232.501323 -0.169835 3.598492
C 232.550021 -0.370194 5.063729
C 232.725679 0.713471 5.922595
C 232.732642 0.524383 7.311726
C 232.553246 -0.744544 7.897168
N 232.552993 -0.911228 9.296675
C 232.292076 -2.244034 9.832122
C 231.998645 0.195339 10.076389
C 232.416399 -1.823810 7.003176
C 232.404065 -1.642775 5.611881
C 233.623566 -0.157147 2.833235
C 234.952118 -0.336237 3.392599
C 235.835807 -0.258550 2.402332
C 235.107434 -0.032738 1.177963
N 233.782817 0.010534 1.485319
H 236.855147 0.019235 0.006769
H 236.733706 0.667607 -2.704403
H 234.782128 0.885545 -4.580171
H 232.989164 0.163618 -0.833464
H 231.617781 2.685047 -5.082584
H 231.540941 2.842876 -7.511334
H 233.134688 2.478124 -9.597144
H 232.162538 2.036766 -11.005463
H 231.381908 2.845791 -9.668439
H 233.316116 -0.611790 -9.882787
H 231.630122 -1.221152 -9.869596
H 232.171040 -0.167582 -11.154307
H 232.183766 -1.431024 -7.761031
H 232.244639 -1.537555 -5.331648
H 229.348222 0.312973 -4.473991
H 227.605572 0.074923 -2.620522
H 227.842773 0.653126 2.803490
H 229.803787 0.493927 4.654973
H 231.488642 -0.173450 0.850613
H 232.859226 1.707552 5.501316
H 232.896695 1.406658 7.920806
H 232.395761 -2.248100 10.923403
H 231.276009 -2.577126 9.592903
H 233.018338 -2.974218 9.458224
H 232.643569 1.078732 10.033807
H 231.927280 -0.070597 11.136978
H 230.990639 0.458278 9.735971
H 232.298376 -2.842555 7.354510
H 232.279169 -2.494851 4.946628
H 235.186935 -0.501475 4.429127
H 236.903325 -0.348734 2.491695
C 129.222239 0.085480 0.008228
C 128.013300 0.072025 -0.000220
C 126.591771 0.080844 -0.012203
C 125.380102 0.088283 -0.001340
C 130.638844 0.078805 0.008761
C 131.859539 0.088283 -0.001340
C 144.997727 0.085480 0.008228
C 143.788788 0.072025 -0.000220
C 142.367259 0.080844 -0.012203
C 141.155590 0.088283 -0.001340
C 146.414332 0.078805 0.008761
C 147.635028 0.088283 -0.001340
C 160.773216 0.085480 0.008228
C 159.564276 0.072025 -0.000220
C 158.142747 0.080844 -0.012203
C 156.931078 0.088283 -0.001340
C 162.189820 0.078805 0.008761
C 163.410516 0.088283 -0.001340
C 176.548704 0.085480 0.008228
C 175.339765 0.072025 -0.000220
C 173.918236 0.080844 -0.012203
C 172.706566 0.088283 -0.001340
C 177.965308 0.078805 0.008761
C 179.186004 0.088283 -0.001340
C 192.324192 0.085480 0.008228
C 191.115253 0.072025 -0.000220
C 189.693724 0.080844 -0.012203
C 188.482054 0.088283 -0.001340
C 193.740796 0.078805 0.008761
C 194.961492 0.088283 -0.001340
C 208.099680 0.085480 0.008228
C 206.890741 0.072025 -0.000220
C 205.469212 0.080844 -0.012203
C 204.257542 0.088283 -0.001340
C 209.516285 0.078805 0.008761
C 210.736980 0.088283 -0.001340
C 223.875168 0.085480 0.008228
C 222.666229 0.072025 -0.000220
C 221.244700 0.080844 -0.012203
C 220.033031 0.088283 -0.001340
C 225.291773 0.078805 0.008761
C 226.512469 0.088283 -0.001340
C 132.932582 -0.037029 0.000199
C 133.726369 -0.387000 1.326559
C 133.218617 -1.002071 2.453264
C 134.255834 -1.038045 3.420098
C 135.366488 -0.450726 2.851231
N 135.055733 -0.127906 1.553972
C 136.756628 -0.183647 3.562804
C 136.746114 -0.002477 5.032469
C 136.296164 1.191330 5.593035
C 136.258050 1.355417 6.985813
C 136.647983 0.331686 7.868758
N 136.609932 0.475994 9.271096
C 136.134670 1.743169 9.817277
C 136.193225 -0.714481 10.012724
C 137.123636 -0.853106 7.274324
C 137.166319 -1.024119 5.883280
C 137.891248 -0.081900 2.821654
C 139.177857 0.218563 3.414901
C 140.085773 0.261567 2.445818
N 138.099365 -0.202476 1.475433
C 139.423631 -0.010504 1.185691
C 140.087221 -0.037029 0.000199
C 139.293422 -0.336137 -1.338564
C 139.800828 -0.909981 -2.487209
C 138.763916 -0.908813 -3.455033
C 137.653748 -0.341645 -2.864644
N 137.964391 -0.068245 -1.556081
C 136.263981 -0.046707 -3.565887
C 136.274954 0.187003 -5.028102
C 136.734319 1.395352 -5.547064
C 136.771752 1.606927 -6.933758
C 136.371545 0.619754 -7.854502
N 136.408629 0.824615 -9.247752
C 136.587070 -0.362841 -10.081245
C 137.035582 2.043462 -9.750281
C 135.887746 -0.580785 -7.298819
C 135.846610 -0.800478 -5.914065
C 135.129242 0.027595 -2.821247
C 133.842434 0.350370 -3.402327
C 132.934414 0.355968 -2.432168
C 133.596590 0.035878 -1.183440
N 134.921275 -0.143747 -1.480363
H 132.209300 -1.363813 2.577153
H 134.194646 -1.427738 4.425177
H 135.717131 0.212529 0.861776
H 135.972841 1.996615 4.936816
H 135.894426 2.310838 7.347064
H 136.253848 1.758900 10.907189
H 136.722371 2.586779 9.437432
H 135.072900 1.901640 9.595669
H 136.940298 -1.512017 9.951795
H 135.227703 -1.089740 9.653542
H 136.083874 -0.489305 11.080393
H 137.496068 -1.672324 7.879799
H 137.536259 -1.952922 5.454056
H 139.371962 0.389967 4.458903
H 141.129914 0.468706 2.592079
H 140.809906 -1.268237 -2.623799
H 138.824601 -1.260732 -4.474051
H 137.303846 0.248088 -0.851187
H 137.064568 2.175183 -4.863953
H 137.139422 2.573248 -7.260308
H 137.480342 -0.926217 -9.787840
H 135.708742 -1.015738 -10.040887
H 136.706339 -0.088336 -11.136052
H 138.102641 2.074205 -9.502795
H 136.946924 2.104011 -10.841180
H 136.538532 2.938472 -9.359566
H 135.514437 -1.381834 -7.926935
H 135.472628 -1.742003 -5.517512
H 133.647768 0.561378 -4.438774
H 131.890045 0.568479 -2.570088
C 148.708070 -0.037029 0.000199
C 149.501857 -0.387000 1.326559
C 148.994105 -1.002071 2.453264
C 150.031322 -1.038045 3.420098
C 151.141976 -0.450726 2.851231
N 150.831222 -0.127906 1.553972
C 152.532116 -0.183647 3.562804
C 152.521602 -0.002477 5.032469
C 152.071652 1.191330 5.593035
C 152.033538 1.355417 6.985813
C 152.423471 0.331686 7.868758
N 152.385420 0.475994 9.271096
C 151.910158 1.743169 9.817277
C 151.968713 -0.714481 10.012724
C 152.899124 -0.853106 7.274324
C 152.941807 -1.024119 5.883280
C 153.666736 -0.081900 2.821654
C 154.953345 0.218563 3.414901
C 155.861261 0.261567 2.445818
N 153.874853 -0.202476 1.475433
C 155.199119 -0.010504 1.185691
C 155.862709 -0.037029 0.000199
C 155.068910 -0.336137 -1.338564
C 155.576316 -0.909981 -2.487209
C 154.539404 -0.908813 -3.455033
C 153.429236 -0.341645 -2.864644
N 153.739879 -0.068245 -1.556081
C 152.039469 -0.046707 -3.565887
C 152.050442 0.187003 -5.028102
C 152.509808 1.395352 -5.547064
C 152.547240 1.606927 -6.933758
C 152.147034 0.619754 -7.854502
N 152.184117 0.824615 -9.247752
C 152.362558 -0.362841 -10.081245
C 152.811071 2.043462 -9.750281
C 151.663235 -0.580785 -7.298819
C 151.622098 -0.800478 -5.914065
C 150.904731 0.027595 -2.821247
C 149.617922 0.350370 -3.402327
C 148.709902 0.355968 -2.432168
C 149.372078 0.035878 -1.183440
N 150.696764 -0.143747 -1.480363
H 147.984788 -1.363813 2.577153
H 149.970135 -1.427738 4.425177
H 151.492619 0.212529 0.861776
H 151.748329 1.996615 4.936816
H 151.669914 2.310838 7.347064
H 152.029337 1.758900 10.907189
H 152.497859 2.586779 9.437432
H 150.848389 1.901640 9.595669
H 152.715787 -1.512017 9.951795
H 151.003191 -1.089740 9.653542
H 151.859362 -0.489305 11.080393
H 153.271556 -1.672324 7.879799
H 153.311747 -1.952922 5.454056
H 155.147450 0.389967 4.458903
H 156.905402 0.468706 2.592079
H 156.585394 -1.268237 -2.623799
H 154.600089 -1.260732 -4.474051
H 153.079334 0.248088 -0.851187
H 152.840056 2.175183 -4.863953
H 152.914910 2.573248 -7.260308
H 153.255830 -0.926217 -9.787840
H 151.484230 -1.015738 -10.040887
H 152.481827 -0.088336 -11.136052
H 153.878129 2.074205 -9.502795
H 152.722412 2.104011 -10.841180
H 152.314020 2.938472 -9.359566
H 151.289925 -1.381834 -7.926935
H 151.248116 -1.742003 -5.517512
H 149.423256 0.561378 -4.438774
H 147.665533 0.568479 -2.570088
C 164.483559 -0.037029 0.000199
C 165.277345 -0.387000 1.326559
C 164.769593 -1.002071 2.453264
C 165.806810 -1.038045 3.420098
C 166.917464 -0.450726 2.851231
N 166.606710 -0.127906 1.553972
C 168.307605 -0.183647 3.562804
C 168.297090 -0.002477 5.032469
C 167.847140 1.191330 5.593035
C 167.809026 1.355417 6.985813
C 168.198959 0.331686 7.868758
N 168.160908 0.475994 9.271096
C 167.685646 1.743169 9.817277
C 167.744202 -0.714481 10.012724
C 168.674613 -0.853106 7.274324
C 168.717295 -1.024119 5.883280
C 169.442224 -0.081900 2.821654
C 170.728834 0.218563 3.414901
C 171.636749 0.261567 2.445818
N 169.650341 -0.202476 1.475433
C 170.974607 -0.010504 1.185691
C 171.638197 -0.037029 0.000199
C 170.844399 -0.336137 -1.338564
C 171.351805 -0.909981 -2.487209
C 170.314892 -0.908813 -3.455033
C 169.204724 -0.341645 -2.864644
N 169.515367 -0.068245 -1.556081
C 167.814957 -0.046707 -3.565887
C 167.825930 0.187003 -5.028102
C 168.285296 1.395352 -5.547064
C 168.322728 1.606927 -6.933758
C 167.922522 0.619754 -7.854502
N 167.959605 0.824615 -9.247752
C 168.138046 -0.362841 -10.081245
C 168.586559 2.043462 -9.750281
C 167.438723 -0.580785 -7.298819
C 167.397586 -0.800478 -5.914065
C 166.680219 0.027595 -2.821247
C 165.393411 0.350370 -3.402327
C 164.485390 0.355968 -2.432168
C 165.147566 0.035878 -1.183440
N 166.472252 -0.143747 -1.480363
H 163.760276 -1.363813 2.577153
H 165.745623 -1.427738 4.425177
H 167.268107 0.212529 0.861776
H 167.523817 1.996615 4.936816
H 167.445403 2.310838 7.347064
H 167.804825 1.758900 10.907189
H 168.273347 2.586779 9.437432
H 166.623877 1.901640 9.595669
H 168.491275 -1.512017 9.951795
H 166.778679 -1.089740 9.653542
H 167.634850 -0.489305 11.080393
H 169.047045 -1.672324 7.879799
H 169.087236 -1.952922 5.454056
H 170.922938 0.389967 4.458903
H 172.680891 0.468706 2.592079
H 172.360882 -1.268237 -2.623799
H 170.375577 -1.260732 -4.474051
H 168.854822 0.248088 -0.851187
H 168.615544 2.175183 -4.863953
H 168.690398 2.573248 -7.260308
H 169.031319 -0.926217 -9.787840
H 167.259719 -1.015738 -10.040887
H 168.257315 -0.088336 -11.136052
H 169.653617 2.074205 -9.502795
H 168.497900 2.104011 -10.841180
H 168.089508 2.938472 -9.359566
H 167.065413 -1.381834 -7.926935
H 167.023604 -1.742003 -5.517512
H 165.198745 0.561378 -4.438774
H 163.441021 0.568479 -2.570088
C 180.259047 -0.037029 0.000199
C 181.052833 -0.387000 1.326559
C 180.545082 -1.002071 2.453264
C 181.582298 -1.038045 3.420098
C 182.692952 -0.450726 2.851231
N 182.382198 -0.127906 1.553972
C 184.083093 -0.183647 3.562804
C 184.072578 -0.002477 5.032469
C 183.622628 1.191330 5.593035
C 183.584514 1.355417 6.985813
C 183.974448 0.331686 7.868758
N 183.936396 0.475994 9.271096
C 183.461134 1.743169 9.817277
C 183.519690 -0.714481 10.012724
C 184.450101 -0.853106 7.274324
C 184.492783 -1.024119 5.883280
C 185.217712 -0.081900 2.821654
C 186.504322 0.218563 3.414901
C 187.412237 0.261567 2.445818
N 185.425829 -0.202476 1.475433
C 186.750095 -0.010504 1.185691
C 187.413685 -0.037029 0.000199
C 186.619887 -0.336137 -1.338564
C 187.127293 -0.909981 -2.487209
C 186.090381 -0.908813 -3.455033
C 184.980212 -0.341645 -2.864644
N 185.290856 -0.068245 -1.556081
C 183.590445 -0.046707 -3.565887
C 183.601418 0.187003 -5.028102
C 184.060784 1.395352 -5.547064
C 184.098217 1.606927 -6.933758
C 183.698010 0.619754 -7.854502
N 183.735093 0.824615 -9.247752
C 183.913534 -0.362841 -10.081245
C 184.362047 2.043462 -9.750281
C 183.214211 -0.580785 -7.298819
C 183.173074 -0.800478 -5.914065
C 182.455707 0.027595 -2.821247
C 181.168899 0.350370 -3.402327
C 180.260878 0.355968 -2.432168
C 180.923054 0.035878 -1.183440
N 182.247740 -0.143747 -1.480363
H 179.535764 -1.363813 2.577153
H 181.521111 -1.427738 4.425177
H 183.043595 0.212529 0.861776
H 183.299305 1.996615 4.936816
H 183.220891 2.310838 7.347064
H 183.580313 1.758900 10.907189
H 184.048835 2.586779 9.437432
H 182.399365 1.901640 9.595669
H 184.266763 -1.512017 9.951795
H 182.554168 -1.089740 9.653542
H 183.410338 -0.489305 11.080393
H 184.822533 -1.672324 7.879799
H 184.862724 -1.952922 5.454056
H 186.698427 0.389967 4.458903
H 188.456379 0.468706 2.592079
H 188.136370 -1.268237 -2.623799
H 186.151065 -1.260732 -4.474051
H 184.630310 0.248088 -0.851187
H 184.391032 2.175183 -4.863953
H 184.465886 2.573248 -7.260308
H 184.806807 -0.926217 -9.787840
H 183.035207 -1.015738 -10.040887
H 184.032803 -0.088336 -11.136052
H 185.429105 2.074205 -9.502795
H 184.273389 2.104011 -10.841180
H 183.864997 2.938472 -9.359566
H 182.840901 -1.381834 -7.926935
H 182.799092 -1.742003 -5.517512
H 180.974233 0.561378 -4.438774
H 179.216509 0.568479 -2.570088
C 196.034535 -0.037029 0.000199
C 196.828321 -0.387000 1.326559
C 196.320570 -1.002071 2.453264
C 197.357786 -1.038045 3.420098
C 198.468440 -0.450726 2.851231
N 198.157686 -0.127906 1.553972
C 199.858581 -0.183647 3.562804
C 199.848067 -0.002477 5.032469
C 199.398116 1.191330 5.593035
C 199.360003 1.355417 6.985813
C 199.749936 0.331686 7.868758
N 199.711885 0.475994 9.271096
C 199.236623 1.743169 9.817277
C 199.295178 -0.714481 10.012724
C 200.225589 -0.853106 7.274324
C 200.268272 -1.024119 5.883280
C 200.993200 -0.081900 2.821654
C 202.279810 0.218563 3.414901
C 203.187725 0.261567 2.445818
N 201.201317 -0.202476 1.475433
C 202.525583 -0.010504 1.185691
C 203.189173 -0.037029 0.000199
C 202.395375 -0.336137 -1.338564
C 202.902781 -0.909981 -2.487209
C 201.865869 -0.908813 -3.455033
C 200.755700 -0.341645 -2.864644
N 201.066344 -0.068245 -1.556081
C 199.365933 -0.046707 -3.565887
C 199.376906 0.187003 -5.028102
C 199.836272 1.395352 -5.547064
C 199.873705 1.606927 -6.933758
C 199.473498 0.619754 -7.854502
N 199.510581 0.824615 -9.247752
C 199.689023 -0.362841 -10.081245
C 200.137535 2.043462 -9.750281
C 198.989699 -0.580785 -7.298819
C 198.948562 -0.800478 -5.914065
C 198.231195 0.027595 -2.821247
C 196.944387 0.350370 -3.402327
C 196.036367 0.355968 -2.432168
C 196.698542 0.035878 -1.183440
N 198.023228 -0.143747 -1.480363
H 195.311252 -1.363813 2.577153
H 197.296599 -1.427738 4.425177
H 198.819083 0.212529 0.861776
H 199.074793 1.996615 4.936816
H 198.996379 2.310838 7.347064
H 199.355801 1.758900 10.907189
H 199.824324 2.586779 9.437432
H 198.174853 1.901640 9.595669
H 200.042251 -1.512017 9.951795
H 198.329656 -1.089740 9.653542
H 199.185826 -0.489305 11.080393
H 200.598021 -1.672324 7.879799
H 200.638212 -1.952922 5.454056
H 202.473915 0.389967 4.458903
H 204.231867 0.468706 2.592079
H 203.911858 -1.268237 -2.623799
H 201.926553 -1.260732 -4.474051
H 200.405799 0.248088 -0.851187
H 200.166520 2.175183 -4.863953
H 200.241374 2.573248 -7.260308
H 200.582295 -0.926217 -9.787840
H 198.810695 -1.015738 -10.040887
H 199.808291 -0.088336 -11.136052
H 201.204593 2.074205 -9.502795
H 200.048877 2.104011 -10.841180
H 199.640485 2.938472 -9.359566
H 198.616389 -1.381834 -7.926935
H 198.574580 -1.742003 -5.517512
H 196.749721 0.561378 -4.438774
H 194.991997 0.568479 -2.570088
C 211.810023 -0.037029 0.000199
C 212.603810 -0.387000 1.326559
C 212.096058 -1.002071 2.453264
C 213.133275 -1.038045 3.420098
C 214.243929 -0.450726 2.851231
N 213.933174 -0.127906 1.553972
C 215.634069 -0.183647 3.562804
C 215.623555 -0.002477 5.032469
C 215.173605 1.191330 5.593035
C 215.135491 1.355417 6.985813
C 215.525424 0.331686 7.868758
N 215.487373 0.475994 9.271096
C 215.012111 1.743169 9.817277
C 215.070666 -0.714481 10.012724
C 216.001077 -0.853106 7.274324
C 216.043760 -1.024119 5.883280
C 216.768688 -0.081900 2.821654
C 218.055298 0.218563 3.414901
C 218.963214 0.261567 2.445818
N 216.976806 -0.202476 1.475433
C 218.301071 -0.010504 1.185691
C 218.964661 -0.037029 0.000199
C 218.170863 -0.336137 -1.338564
C 218.678269 -0.909981 -2.487209
C 217.641357 -0.908813 -3.455033
C 216.531189 -0.341645 -2.864644
N 216.841832 -0.068245 -1.556081
C 215.141421 -0.046707 -3.565887
C 215.152395 0.187003 -5.028102
C 215.611760 1.395352 -5.547064
C 215.649193 1.606927 -6.933758
C 215.248986 0.619754 -7.854502
N 215.286069 0.824615 -9.247752
C 215.464511 -0.362841 -10.081245
C 215.913023 2.043462 -9.750281
C 214.765187 -0.580785 -7.298819
C 214.724051 -0.800478 -5.914065
C 214.006683 0.027595 -2.821247
C 212.719875 0.350370 -3.402327
C 211.811855 0.355968 -2.432168
C 212.474031 0.035878 -1.183440
N 213.798716 -0.143747 -1.480363
H 211.086741 -1.363813 2.577153
H 213.072087 -1.427738 4.425177
H 214.594572 0.212529 0.861776
H 214.850282 1.996615 4.936816
H 214.771867 2.310838 7.347064
H 215.131289 1.758900 10.907189
H 215.599812 2.586779 9.437432
H 213.950341 1.901640 9.595669
H 215.817739 -1.512017 9.951795
H 214.105144 -1.089740 9.653542
H 214.961315 -0.489305 11.080393
H 216.373509 -1.672324 7.879799
H 216.413700 -1.952922 5.454056
H 218.249403 0.389967 4.458903
H 220.007355 0.468706 2.592079
H 219.687347 -1.268237 -2.623799
H 217.702042 -1.260732 -4.474051
H 216.181287 0.248088 -0.851187
H 215.942009 2.175183 -4.863953
H 216.016863 2.573248 -7.260308
H 216.357783 -0.926217 -9.787840
H 214.586183 -1.015738 -10.040887
H 215.583779 -0.088336 -11.136052
H 216.980082 2.074205 -9.502795
H 215.824365 2.104011 -10.841180
H 215.415973 2.938472 -9.359566
H 214.391877 -1.381834 -7.926935
H 214.350069 -1.742003 -5.517512
H 212.525209 0.561378 -4.438774
H 210.767485 0.568479 -2.570088
