 xtb: 6.5.1 (b24c23e)
          07262216303D

374418  0     0  0            999 V2000
   49.9068   -0.0509   -0.0056 C   0  0  0  0  0  0  0  0  0  0  0  0
   50.5263   -1.2927   -0.0673 C   0  0  0  0  0  0  0  0  0  0  0  0
   49.9063   -2.5736   -0.1341 C   0  0  0  0  0  0  0  0  0  0  0  0
   50.8939   -3.5170   -0.1790 C   0  0  0  0  0  0  0  0  0  0  0  0
   52.1481   -2.8426   -0.1412 C   0  0  0  0  0  0  0  0  0  0  0  0
   51.8753   -1.5069   -0.0743 N   0  0  0  0  0  0  0  0  0  0  0  0
   53.4144   -3.4153   -0.1664 C   0  0  0  0  0  0  0  0  0  0  0  0
   54.6358   -2.7584   -0.1301 C   0  0  0  0  0  0  0  0  0  0  0  0
   55.9129   -3.4489   -0.1618 C   0  0  0  0  0  0  0  0  0  0  0  0
   56.8641   -2.4934   -0.1122 C   0  0  0  0  0  0  0  0  0  0  0  0
   54.8311   -1.4132   -0.0624 N   0  0  0  0  0  0  0  0  0  0  0  0
   56.1638   -1.2228   -0.0502 C   0  0  0  0  0  0  0  0  0  0  0  0
   56.8216    0.0235    0.0125 C   0  0  0  0  0  0  0  0  0  0  0  0
   56.1769    1.2734    0.0745 C   0  0  0  0  0  0  0  0  0  0  0  0
   56.7921    2.5529    0.1403 C   0  0  0  0  0  0  0  0  0  0  0  0
   55.8009    3.4941    0.1872 C   0  0  0  0  0  0  0  0  0  0  0  0
   54.5507    2.8155    0.1512 C   0  0  0  0  0  0  0  0  0  0  0  0
   54.8305    1.4772    0.0833 N   0  0  0  0  0  0  0  0  0  0  0  0
   53.2855    3.3884    0.1785 C   0  0  0  0  0  0  0  0  0  0  0  0
   52.0633    2.7287    0.1424 C   0  0  0  0  0  0  0  0  0  0  0  0
   50.7800    3.4131    0.1748 C   0  0  0  0  0  0  0  0  0  0  0  0
   49.8347    2.4533    0.1231 C   0  0  0  0  0  0  0  0  0  0  0  0
   50.5414    1.1838    0.0594 C   0  0  0  0  0  0  0  0  0  0  0  0
   51.8800    1.3892    0.0731 N   0  0  0  0  0  0  0  0  0  0  0  0
   48.8219   -0.0546   -0.0087 H   0  0  0  0  0  0  0  0  0  0  0  0
   48.8402   -2.7364   -0.1455 H   0  0  0  0  0  0  0  0  0  0  0  0
   50.7781   -4.5879   -0.2336 H   0  0  0  0  0  0  0  0  0  0  0  0
   52.5738   -0.7723   -0.0351 H   0  0  0  0  0  0  0  0  0  0  0  0
   53.4417   -4.4989   -0.2209 H   0  0  0  0  0  0  0  0  0  0  0  0
   56.0318   -4.5197   -0.2150 H   0  0  0  0  0  0  0  0  0  0  0  0
   57.9366   -2.6063   -0.1156 H   0  0  0  0  0  0  0  0  0  0  0  0
   57.8574    2.7189    0.1500 H   0  0  0  0  0  0  0  0  0  0  0  0
   55.9139    4.5651    0.2420 H   0  0  0  0  0  0  0  0  0  0  0  0
   54.1344    0.7400    0.0449 H   0  0  0  0  0  0  0  0  0  0  0  0
   53.2593    4.4719    0.2340 H   0  0  0  0  0  0  0  0  0  0  0  0
   50.6560    4.4835    0.2296 H   0  0  0  0  0  0  0  0  0  0  0  0
   48.7610    2.5593    0.1260 H   0  0  0  0  0  0  0  0  0  0  0  0
  185.7953    0.0507   -0.0122 C   0  0  0  0  0  0  0  0  0  0  0  0
  185.1731    1.2762   -0.2140 C   0  0  0  0  0  0  0  0  0  0  0  0
  185.7904    2.5428   -0.4246 C   0  0  0  0  0  0  0  0  0  0  0  0
  184.8007    3.4729   -0.5761 C   0  0  0  0  0  0  0  0  0  0  0  0
  183.5480    2.8042   -0.4630 C   0  0  0  0  0  0  0  0  0  0  0  0
  183.8237    1.4852   -0.2459 N   0  0  0  0  0  0  0  0  0  0  0  0
  182.2804    3.3676   -0.5528 C   0  0  0  0  0  0  0  0  0  0  0  0
  181.0605    2.7163   -0.4427 C   0  0  0  0  0  0  0  0  0  0  0  0
  179.7818    3.3961   -0.5516 C   0  0  0  0  0  0  0  0  0  0  0  0
  178.8328    2.4502   -0.3948 C   0  0  0  0  0  0  0  0  0  0  0  0
  180.8680    1.3868   -0.2242 N   0  0  0  0  0  0  0  0  0  0  0  0
  179.5357    1.1961   -0.1905 C   0  0  0  0  0  0  0  0  0  0  0  0
  178.8806   -0.0369    0.0107 C   0  0  0  0  0  0  0  0  0  0  0  0
  179.5278   -1.2708    0.2110 C   0  0  0  0  0  0  0  0  0  0  0  0
  178.9154   -2.5364    0.4182 C   0  0  0  0  0  0  0  0  0  0  0  0
  179.9087   -3.4642    0.5706 C   0  0  0  0  0  0  0  0  0  0  0  0
  181.1574   -2.7909    0.4603 C   0  0  0  0  0  0  0  0  0  0  0  0
  180.8746   -1.4692    0.2434 N   0  0  0  0  0  0  0  0  0  0  0  0
  182.4238   -3.3541    0.5531 C   0  0  0  0  0  0  0  0  0  0  0  0
  183.6447   -2.6996    0.4449 C   0  0  0  0  0  0  0  0  0  0  0  0
  184.9294   -3.3731    0.5556 C   0  0  0  0  0  0  0  0  0  0  0  0
  185.8727   -2.4229    0.3976 C   0  0  0  0  0  0  0  0  0  0  0  0
  185.1632   -1.1703    0.1908 C   0  0  0  0  0  0  0  0  0  0  0  0
  183.8251   -1.3760    0.2260 N   0  0  0  0  0  0  0  0  0  0  0  0
  186.8801    0.0566   -0.0147 H   0  0  0  0  0  0  0  0  0  0  0  0
  186.8560    2.7057   -0.4537 H   0  0  0  0  0  0  0  0  0  0  0  0
  184.9142    4.5310   -0.7512 H   0  0  0  0  0  0  0  0  0  0  0  0
  183.1267    0.7581   -0.1243 H   0  0  0  0  0  0  0  0  0  0  0  0
  182.2507    4.4381   -0.7290 H   0  0  0  0  0  0  0  0  0  0  0  0
  179.6606    4.4539   -0.7247 H   0  0  0  0  0  0  0  0  0  0  0  0
  177.7601    2.5598   -0.4107 H   0  0  0  0  0  0  0  0  0  0  0  0
  177.8505   -2.7028    0.4455 H   0  0  0  0  0  0  0  0  0  0  0  0
  179.7980   -4.5226    0.7444 H   0  0  0  0  0  0  0  0  0  0  0  0
  181.5691   -0.7392    0.1238 H   0  0  0  0  0  0  0  0  0  0  0  0
  182.4524   -4.4245    0.7295 H   0  0  0  0  0  0  0  0  0  0  0  0
  185.0557   -4.4302    0.7305 H   0  0  0  0  0  0  0  0  0  0  0  0
  186.9466   -2.5253    0.4138 H   0  0  0  0  0  0  0  0  0  0  0  0
   62.0212    0.0585    0.0089 C   0  0  0  0  0  0  0  0  0  0  0  0
   60.7926    0.0515    0.0107 C   0  0  0  0  0  0  0  0  0  0  0  0
   59.4492    0.0439    0.0117 C   0  0  0  0  0  0  0  0  0  0  0  0
   58.2251    0.0329    0.0135 C   0  0  0  0  0  0  0  0  0  0  0  0
   63.3645    0.0629    0.0052 C   0  0  0  0  0  0  0  0  0  0  0  0
   64.5888    0.0629    0.0012 C   0  0  0  0  0  0  0  0  0  0  0  0
   78.1595    0.0010   -0.0075 C   0  0  0  0  0  0  0  0  0  0  0  0
   76.9308    0.0065   -0.0105 C   0  0  0  0  0  0  0  0  0  0  0  0
   75.5882    0.0089   -0.0148 C   0  0  0  0  0  0  0  0  0  0  0  0
   74.3639    0.0159   -0.0136 C   0  0  0  0  0  0  0  0  0  0  0  0
   79.5020   -0.0010   -0.0073 C   0  0  0  0  0  0  0  0  0  0  0  0
   80.7263   -0.0033   -0.0063 C   0  0  0  0  0  0  0  0  0  0  0  0
   94.2863   -0.0005    0.0052 C   0  0  0  0  0  0  0  0  0  0  0  0
   93.0577   -0.0008    0.0013 C   0  0  0  0  0  0  0  0  0  0  0  0
   91.7153   -0.0027    0.0019 C   0  0  0  0  0  0  0  0  0  0  0  0
   90.4911   -0.0028    0.0017 C   0  0  0  0  0  0  0  0  0  0  0  0
   95.6286    0.0008    0.0056 C   0  0  0  0  0  0  0  0  0  0  0  0
   96.8529    0.0000    0.0074 C   0  0  0  0  0  0  0  0  0  0  0  0
  110.4064   -0.0107   -0.0055 C   0  0  0  0  0  0  0  0  0  0  0  0
  109.1779   -0.0080    0.0017 C   0  0  0  0  0  0  0  0  0  0  0  0
  107.8357   -0.0068    0.0067 C   0  0  0  0  0  0  0  0  0  0  0  0
  106.6115   -0.0036    0.0090 C   0  0  0  0  0  0  0  0  0  0  0  0
  111.7486   -0.0098   -0.0105 C   0  0  0  0  0  0  0  0  0  0  0  0
  112.9728   -0.0123   -0.0154 C   0  0  0  0  0  0  0  0  0  0  0  0
  126.5237    0.0051    0.0159 C   0  0  0  0  0  0  0  0  0  0  0  0
  125.2952    0.0043    0.0075 C   0  0  0  0  0  0  0  0  0  0  0  0
  123.9530    0.0023    0.0023 C   0  0  0  0  0  0  0  0  0  0  0  0
  122.7288    0.0034   -0.0008 C   0  0  0  0  0  0  0  0  0  0  0  0
  127.8659    0.0042    0.0186 C   0  0  0  0  0  0  0  0  0  0  0  0
  129.0901    0.0016    0.0185 C   0  0  0  0  0  0  0  0  0  0  0  0
  142.6441    0.0032   -0.0041 C   0  0  0  0  0  0  0  0  0  0  0  0
  141.4154    0.0026   -0.0017 C   0  0  0  0  0  0  0  0  0  0  0  0
  140.0731   -0.0009   -0.0011 C   0  0  0  0  0  0  0  0  0  0  0  0
  138.8489   -0.0012    0.0008 C   0  0  0  0  0  0  0  0  0  0  0  0
  143.9864    0.0069   -0.0043 C   0  0  0  0  0  0  0  0  0  0  0  0
  145.2107    0.0074   -0.0053 C   0  0  0  0  0  0  0  0  0  0  0  0
  158.7711   -0.0065   -0.0038 C   0  0  0  0  0  0  0  0  0  0  0  0
  157.5424   -0.0030   -0.0066 C   0  0  0  0  0  0  0  0  0  0  0  0
  156.1998   -0.0005   -0.0093 C   0  0  0  0  0  0  0  0  0  0  0  0
  154.9755    0.0007   -0.0097 C   0  0  0  0  0  0  0  0  0  0  0  0
  160.1137   -0.0067   -0.0013 C   0  0  0  0  0  0  0  0  0  0  0  0
  161.3380   -0.0115   -0.0013 C   0  0  0  0  0  0  0  0  0  0  0  0
  174.9095   -0.0606    0.0106 C   0  0  0  0  0  0  0  0  0  0  0  0
  173.6808   -0.0604    0.0107 C   0  0  0  0  0  0  0  0  0  0  0  0
  172.3376   -0.0630    0.0098 C   0  0  0  0  0  0  0  0  0  0  0  0
  171.1133   -0.0573    0.0037 C   0  0  0  0  0  0  0  0  0  0  0  0
  176.2529   -0.0576    0.0082 C   0  0  0  0  0  0  0  0  0  0  0  0
  177.4770   -0.0487    0.0110 C   0  0  0  0  0  0  0  0  0  0  0  0
   65.9914    0.0611   -0.0024 C   0  0  0  0  0  0  0  0  0  0  0  0
   66.6336    1.3146   -0.0110 C   0  0  0  0  0  0  0  0  0  0  0  0
   66.0196    2.5949   -0.0176 C   0  0  0  0  0  0  0  0  0  0  0  0
   67.0128    3.5365   -0.0265 C   0  0  0  0  0  0  0  0  0  0  0  0
   68.2608    2.8555   -0.0255 C   0  0  0  0  0  0  0  0  0  0  0  0
   67.9804    1.5166   -0.0160 N   0  0  0  0  0  0  0  0  0  0  0  0
   69.5270    3.4308   -0.0326 C   0  0  0  0  0  0  0  0  0  0  0  0
   70.7533    2.7847   -0.0306 C   0  0  0  0  0  0  0  0  0  0  0  0
   72.0239    3.4876   -0.0376 C   0  0  0  0  0  0  0  0  0  0  0  0
   72.9839    2.5396   -0.0319 C   0  0  0  0  0  0  0  0  0  0  0  0
   70.9610    1.4394   -0.0213 N   0  0  0  0  0  0  0  0  0  0  0  0
   72.2953    1.2618   -0.0216 C   0  0  0  0  0  0  0  0  0  0  0  0
   72.9619    0.0187   -0.0131 C   0  0  0  0  0  0  0  0  0  0  0  0
   72.3201   -1.2349   -0.0046 C   0  0  0  0  0  0  0  0  0  0  0  0
   72.9345   -2.5152    0.0029 C   0  0  0  0  0  0  0  0  0  0  0  0
   71.9416   -3.4569    0.0092 C   0  0  0  0  0  0  0  0  0  0  0  0
   70.6934   -2.7762    0.0057 C   0  0  0  0  0  0  0  0  0  0  0  0
   70.9736   -1.4370   -0.0027 N   0  0  0  0  0  0  0  0  0  0  0  0
   69.4273   -3.3509    0.0102 C   0  0  0  0  0  0  0  0  0  0  0  0
   68.2009   -2.7043    0.0080 C   0  0  0  0  0  0  0  0  0  0  0  0
   66.9306   -3.4075    0.0140 C   0  0  0  0  0  0  0  0  0  0  0  0
   65.9703   -2.4599    0.0106 C   0  0  0  0  0  0  0  0  0  0  0  0
   66.6583   -1.1818    0.0025 C   0  0  0  0  0  0  0  0  0  0  0  0
   67.9930   -1.3592    0.0009 N   0  0  0  0  0  0  0  0  0  0  0  0
   64.9545    2.7625   -0.0158 H   0  0  0  0  0  0  0  0  0  0  0  0
   66.9011    4.6090   -0.0332 H   0  0  0  0  0  0  0  0  0  0  0  0
   68.6734    0.7754   -0.0132 H   0  0  0  0  0  0  0  0  0  0  0  0
   69.5469    4.5161   -0.0401 H   0  0  0  0  0  0  0  0  0  0  0  0
   72.1327    4.5608   -0.0456 H   0  0  0  0  0  0  0  0  0  0  0  0
   74.0553    2.6621   -0.0343 H   0  0  0  0  0  0  0  0  0  0  0  0
   73.9997   -2.6825    0.0033 H   0  0  0  0  0  0  0  0  0  0  0  0
   72.0536   -4.5294    0.0157 H   0  0  0  0  0  0  0  0  0  0  0  0
   70.2806   -0.6960   -0.0069 H   0  0  0  0  0  0  0  0  0  0  0  0
   69.4069   -4.4362    0.0166 H   0  0  0  0  0  0  0  0  0  0  0  0
   66.8223   -4.4808    0.0200 H   0  0  0  0  0  0  0  0  0  0  0  0
   64.8990   -2.5828    0.0132 H   0  0  0  0  0  0  0  0  0  0  0  0
   82.1284    0.0002   -0.0035 C   0  0  0  0  0  0  0  0  0  0  0  0
   82.7632    1.2575   -0.0188 C   0  0  0  0  0  0  0  0  0  0  0  0
   82.1404    2.5336   -0.0358 C   0  0  0  0  0  0  0  0  0  0  0  0
   83.1270    3.4819   -0.0467 C   0  0  0  0  0  0  0  0  0  0  0  0
   84.3794    2.8095   -0.0369 C   0  0  0  0  0  0  0  0  0  0  0  0
   84.1083    1.4686   -0.0200 N   0  0  0  0  0  0  0  0  0  0  0  0
   85.6421    3.3921   -0.0434 C   0  0  0  0  0  0  0  0  0  0  0  0
   86.8709    2.7510   -0.0348 C   0  0  0  0  0  0  0  0  0  0  0  0
   88.1390    3.4582   -0.0436 C   0  0  0  0  0  0  0  0  0  0  0  0
   89.1021    2.5135   -0.0315 C   0  0  0  0  0  0  0  0  0  0  0  0
   87.0830    1.4064   -0.0177 N   0  0  0  0  0  0  0  0  0  0  0  0
   88.4178    1.2334   -0.0154 C   0  0  0  0  0  0  0  0  0  0  0  0
   89.0892   -0.0069    0.0009 C   0  0  0  0  0  0  0  0  0  0  0  0
   88.4549   -1.2642    0.0176 C   0  0  0  0  0  0  0  0  0  0  0  0
   89.0780   -2.5402    0.0352 C   0  0  0  0  0  0  0  0  0  0  0  0
   88.0915   -3.4886    0.0480 C   0  0  0  0  0  0  0  0  0  0  0  0
   86.8389   -2.8163    0.0385 C   0  0  0  0  0  0  0  0  0  0  0  0
   87.1099   -1.4753    0.0203 N   0  0  0  0  0  0  0  0  0  0  0  0
   85.5762   -3.3986    0.0459 C   0  0  0  0  0  0  0  0  0  0  0  0
   84.3474   -2.7572    0.0362 C   0  0  0  0  0  0  0  0  0  0  0  0
   83.0795   -3.4646    0.0445 C   0  0  0  0  0  0  0  0  0  0  0  0
   82.1161   -2.5201    0.0304 C   0  0  0  0  0  0  0  0  0  0  0  0
   82.8001   -1.2399    0.0139 C   0  0  0  0  0  0  0  0  0  0  0  0
   84.1351   -1.4127    0.0178 N   0  0  0  0  0  0  0  0  0  0  0  0
   81.0742    2.6939   -0.0389 H   0  0  0  0  0  0  0  0  0  0  0  0
   83.0080    4.5535   -0.0604 H   0  0  0  0  0  0  0  0  0  0  0  0
   84.8070    0.7329   -0.0099 H   0  0  0  0  0  0  0  0  0  0  0  0
   85.6567    4.4774   -0.0571 H   0  0  0  0  0  0  0  0  0  0  0  0
   88.2441    4.5317   -0.0572 H   0  0  0  0  0  0  0  0  0  0  0  0
   90.1731    2.6396   -0.0330 H   0  0  0  0  0  0  0  0  0  0  0  0
   90.1442   -2.7003    0.0376 H   0  0  0  0  0  0  0  0  0  0  0  0
   88.2108   -4.5602    0.0626 H   0  0  0  0  0  0  0  0  0  0  0  0
   86.4112   -0.7397    0.0102 H   0  0  0  0  0  0  0  0  0  0  0  0
   85.5614   -4.4838    0.0607 H   0  0  0  0  0  0  0  0  0  0  0  0
   82.9746   -4.5381    0.0590 H   0  0  0  0  0  0  0  0  0  0  0  0
   81.0452   -2.6465    0.0309 H   0  0  0  0  0  0  0  0  0  0  0  0
   98.2548    0.0036    0.0102 C   0  0  0  0  0  0  0  0  0  0  0  0
   98.8891    1.2609   -0.0080 C   0  0  0  0  0  0  0  0  0  0  0  0
   98.2654    2.5365   -0.0280 C   0  0  0  0  0  0  0  0  0  0  0  0
   99.2513    3.4855   -0.0403 C   0  0  0  0  0  0  0  0  0  0  0  0
  100.5042    2.8138   -0.0285 C   0  0  0  0  0  0  0  0  0  0  0  0
  100.2339    1.4727   -0.0090 N   0  0  0  0  0  0  0  0  0  0  0  0
  101.7668    3.3964   -0.0357 C   0  0  0  0  0  0  0  0  0  0  0  0
  102.9949    2.7541   -0.0258 C   0  0  0  0  0  0  0  0  0  0  0  0
  104.2638    3.4596   -0.0364 C   0  0  0  0  0  0  0  0  0  0  0  0
  105.2257    2.5136   -0.0235 C   0  0  0  0  0  0  0  0  0  0  0  0
  103.2051    1.4092   -0.0061 N   0  0  0  0  0  0  0  0  0  0  0  0
  104.5396    1.2345   -0.0045 C   0  0  0  0  0  0  0  0  0  0  0  0
  105.2098   -0.0064    0.0134 C   0  0  0  0  0  0  0  0  0  0  0  0
  104.5755   -1.2637    0.0343 C   0  0  0  0  0  0  0  0  0  0  0  0
  105.1994   -2.5393    0.0548 C   0  0  0  0  0  0  0  0  0  0  0  0
  104.2136   -3.4883    0.0713 C   0  0  0  0  0  0  0  0  0  0  0  0
  102.9607   -2.8167    0.0609 C   0  0  0  0  0  0  0  0  0  0  0  0
  103.2308   -1.4756    0.0388 N   0  0  0  0  0  0  0  0  0  0  0  0
  101.6981   -3.3991    0.0702 C   0  0  0  0  0  0  0  0  0  0  0  0
  100.4700   -2.7567    0.0585 C   0  0  0  0  0  0  0  0  0  0  0  0
   99.2011   -3.4623    0.0683 C   0  0  0  0  0  0  0  0  0  0  0  0
   98.2392   -2.5164    0.0510 C   0  0  0  0  0  0  0  0  0  0  0  0
   98.9251   -1.2372    0.0311 C   0  0  0  0  0  0  0  0  0  0  0  0
  100.2597   -1.4118    0.0360 N   0  0  0  0  0  0  0  0  0  0  0  0
   97.1991    2.6961   -0.0321 H   0  0  0  0  0  0  0  0  0  0  0  0
   99.1316    4.5570   -0.0564 H   0  0  0  0  0  0  0  0  0  0  0  0
  100.9333    0.7378    0.0030 H   0  0  0  0  0  0  0  0  0  0  0  0
  101.7819    4.4816   -0.0515 H   0  0  0  0  0  0  0  0  0  0  0  0
  104.3703    4.5330   -0.0519 H   0  0  0  0  0  0  0  0  0  0  0  0
  106.2969    2.6383   -0.0259 H   0  0  0  0  0  0  0  0  0  0  0  0
  106.2657   -2.6987    0.0568 H   0  0  0  0  0  0  0  0  0  0  0  0
  104.3334   -4.5598    0.0890 H   0  0  0  0  0  0  0  0  0  0  0  0
  102.5313   -0.7407    0.0270 H   0  0  0  0  0  0  0  0  0  0  0  0
  101.6829   -4.4843    0.0882 H   0  0  0  0  0  0  0  0  0  0  0  0
   99.0948   -4.5356    0.0859 H   0  0  0  0  0  0  0  0  0  0  0  0
   97.1681   -2.6413    0.0514 H   0  0  0  0  0  0  0  0  0  0  0  0
  114.3746   -0.0070   -0.0184 C   0  0  0  0  0  0  0  0  0  0  0  0
  115.0060    1.2517   -0.0391 C   0  0  0  0  0  0  0  0  0  0  0  0
  114.3790    2.5257   -0.0601 C   0  0  0  0  0  0  0  0  0  0  0  0
  115.3624    3.4772   -0.0763 C   0  0  0  0  0  0  0  0  0  0  0  0
  116.6170    2.8087   -0.0654 C   0  0  0  0  0  0  0  0  0  0  0  0
  116.3503    1.4669   -0.0432 N   0  0  0  0  0  0  0  0  0  0  0  0
  117.8782    3.3941   -0.0741 C   0  0  0  0  0  0  0  0  0  0  0  0
  119.1075    2.7540   -0.0610 C   0  0  0  0  0  0  0  0  0  0  0  0
  120.3751    3.4616   -0.0692 C   0  0  0  0  0  0  0  0  0  0  0  0
  121.3385    2.5173   -0.0499 C   0  0  0  0  0  0  0  0  0  0  0  0
  119.3198    1.4094   -0.0379 N   0  0  0  0  0  0  0  0  0  0  0  0
  120.6546    1.2370   -0.0307 C   0  0  0  0  0  0  0  0  0  0  0  0
  121.3270   -0.0026   -0.0083 C   0  0  0  0  0  0  0  0  0  0  0  0
  120.6957   -1.2614    0.0079 C   0  0  0  0  0  0  0  0  0  0  0  0
  121.3227   -2.5354    0.0279 C   0  0  0  0  0  0  0  0  0  0  0  0
  120.3392   -3.4870    0.0379 C   0  0  0  0  0  0  0  0  0  0  0  0
  119.0847   -2.8185    0.0247 C   0  0  0  0  0  0  0  0  0  0  0  0
  119.3514   -1.4767    0.0065 N   0  0  0  0  0  0  0  0  0  0  0  0
  117.8234   -3.4040    0.0302 C   0  0  0  0  0  0  0  0  0  0  0  0
  116.5942   -2.7638    0.0200 C   0  0  0  0  0  0  0  0  0  0  0  0
  115.3265   -3.4714    0.0299 C   0  0  0  0  0  0  0  0  0  0  0  0
  114.3631   -2.5270    0.0173 C   0  0  0  0  0  0  0  0  0  0  0  0
  115.0470   -1.2467   -0.0009 C   0  0  0  0  0  0  0  0  0  0  0  0
  116.3818   -1.4192    0.0012 N   0  0  0  0  0  0  0  0  0  0  0  0
  113.3123    2.6825   -0.0623 H   0  0  0  0  0  0  0  0  0  0  0  0
  115.2399    4.5483   -0.0941 H   0  0  0  0  0  0  0  0  0  0  0  0
  117.0518    0.7340   -0.0311 H   0  0  0  0  0  0  0  0  0  0  0  0
  117.8911    4.4793   -0.0922 H   0  0  0  0  0  0  0  0  0  0  0  0
  120.4799    4.5351   -0.0871 H   0  0  0  0  0  0  0  0  0  0  0  0
  122.4095    2.6438   -0.0487 H   0  0  0  0  0  0  0  0  0  0  0  0
  122.3894   -2.6922    0.0336 H   0  0  0  0  0  0  0  0  0  0  0  0
  120.4617   -4.5582    0.0533 H   0  0  0  0  0  0  0  0  0  0  0  0
  118.6499   -0.7437   -0.0059 H   0  0  0  0  0  0  0  0  0  0  0  0
  117.8105   -4.4892    0.0454 H   0  0  0  0  0  0  0  0  0  0  0  0
  115.2217   -4.5450    0.0448 H   0  0  0  0  0  0  0  0  0  0  0  0
  113.2921   -2.6534    0.0193 H   0  0  0  0  0  0  0  0  0  0  0  0
  130.4919    0.0052    0.0195 C   0  0  0  0  0  0  0  0  0  0  0  0
  131.1259    1.2626    0.0021 C   0  0  0  0  0  0  0  0  0  0  0  0
  130.5021    2.5382   -0.0138 C   0  0  0  0  0  0  0  0  0  0  0  0
  131.4879    3.4873   -0.0277 C   0  0  0  0  0  0  0  0  0  0  0  0
  132.7408    2.8157   -0.0209 C   0  0  0  0  0  0  0  0  0  0  0  0
  132.4707    1.4745   -0.0026 N   0  0  0  0  0  0  0  0  0  0  0  0
  134.0034    3.3981   -0.0311 C   0  0  0  0  0  0  0  0  0  0  0  0
  135.2316    2.7556   -0.0254 C   0  0  0  0  0  0  0  0  0  0  0  0
  136.5003    3.4612   -0.0378 C   0  0  0  0  0  0  0  0  0  0  0  0
  137.4623    2.5153   -0.0279 C   0  0  0  0  0  0  0  0  0  0  0  0
  135.4419    1.4107   -0.0083 N   0  0  0  0  0  0  0  0  0  0  0  0
  136.7765    1.2361   -0.0093 C   0  0  0  0  0  0  0  0  0  0  0  0
  137.4470   -0.0048    0.0055 C   0  0  0  0  0  0  0  0  0  0  0  0
  136.8128   -1.2621    0.0241 C   0  0  0  0  0  0  0  0  0  0  0  0
  137.4365   -2.5378    0.0399 C   0  0  0  0  0  0  0  0  0  0  0  0
  136.4505   -3.4867    0.0556 C   0  0  0  0  0  0  0  0  0  0  0  0
  135.1977   -2.8150    0.0496 C   0  0  0  0  0  0  0  0  0  0  0  0
  135.4679   -1.4739    0.0304 N   0  0  0  0  0  0  0  0  0  0  0  0
  133.9351   -3.3976    0.0607 C   0  0  0  0  0  0  0  0  0  0  0  0
  132.7070   -2.7552    0.0545 C   0  0  0  0  0  0  0  0  0  0  0  0
  131.4381   -3.4608    0.0665 C   0  0  0  0  0  0  0  0  0  0  0  0
  130.4762   -2.5148    0.0548 C   0  0  0  0  0  0  0  0  0  0  0  0
  131.1622   -1.2357    0.0360 C   0  0  0  0  0  0  0  0  0  0  0  0
  132.4967   -1.4103    0.0363 N   0  0  0  0  0  0  0  0  0  0  0  0
  129.4357    2.6977   -0.0143 H   0  0  0  0  0  0  0  0  0  0  0  0
  131.3681    4.5588   -0.0417 H   0  0  0  0  0  0  0  0  0  0  0  0
  133.1702    0.7395    0.0059 H   0  0  0  0  0  0  0  0  0  0  0  0
  134.0186    4.4833   -0.0454 H   0  0  0  0  0  0  0  0  0  0  0  0
  136.6067    4.5346   -0.0520 H   0  0  0  0  0  0  0  0  0  0  0  0
  138.5335    2.6402   -0.0322 H   0  0  0  0  0  0  0  0  0  0  0  0
  138.5028   -2.6974    0.0393 H   0  0  0  0  0  0  0  0  0  0  0  0
  136.5702   -4.5583    0.0702 H   0  0  0  0  0  0  0  0  0  0  0  0
  134.7685   -0.7389    0.0221 H   0  0  0  0  0  0  0  0  0  0  0  0
  133.9200   -4.4828    0.0757 H   0  0  0  0  0  0  0  0  0  0  0  0
  131.3316   -4.5341    0.0816 H   0  0  0  0  0  0  0  0  0  0  0  0
  129.4050   -2.6395    0.0583 H   0  0  0  0  0  0  0  0  0  0  0  0
  146.6126    0.0108   -0.0056 C   0  0  0  0  0  0  0  0  0  0  0  0
  147.2479    1.2676   -0.0213 C   0  0  0  0  0  0  0  0  0  0  0  0
  146.6258    2.5441   -0.0365 C   0  0  0  0  0  0  0  0  0  0  0  0
  147.6131    3.4917   -0.0486 C   0  0  0  0  0  0  0  0  0  0  0  0
  148.8651    2.8183   -0.0413 C   0  0  0  0  0  0  0  0  0  0  0  0
  148.5930    1.4776   -0.0247 N   0  0  0  0  0  0  0  0  0  0  0  0
  150.1283    3.3995   -0.0495 C   0  0  0  0  0  0  0  0  0  0  0  0
  151.3566    2.7571   -0.0428 C   0  0  0  0  0  0  0  0  0  0  0  0
  152.6251    3.4635   -0.0530 C   0  0  0  0  0  0  0  0  0  0  0  0
  153.5876    2.5182   -0.0420 C   0  0  0  0  0  0  0  0  0  0  0  0
  151.5678    1.4124   -0.0262 N   0  0  0  0  0  0  0  0  0  0  0  0
  152.9026    1.2385   -0.0252 C   0  0  0  0  0  0  0  0  0  0  0  0
  153.5734   -0.0022   -0.0097 C   0  0  0  0  0  0  0  0  0  0  0  0
  152.9377   -1.2589    0.0065 C   0  0  0  0  0  0  0  0  0  0  0  0
  153.5594   -2.5355    0.0221 C   0  0  0  0  0  0  0  0  0  0  0  0
  152.5720   -3.4830    0.0347 C   0  0  0  0  0  0  0  0  0  0  0  0
  151.3201   -2.8095    0.0272 C   0  0  0  0  0  0  0  0  0  0  0  0
  151.5924   -1.4688    0.0101 N   0  0  0  0  0  0  0  0  0  0  0  0
  150.0569   -3.3910    0.0356 C   0  0  0  0  0  0  0  0  0  0  0  0
  148.8287   -2.7489    0.0283 C   0  0  0  0  0  0  0  0  0  0  0  0
  147.5601   -3.4551    0.0381 C   0  0  0  0  0  0  0  0  0  0  0  0
  146.5977   -2.5096    0.0265 C   0  0  0  0  0  0  0  0  0  0  0  0
  147.2831   -1.2301    0.0098 C   0  0  0  0  0  0  0  0  0  0  0  0
  148.6177   -1.4041    0.0113 N   0  0  0  0  0  0  0  0  0  0  0  0
  145.5597    2.7051   -0.0378 H   0  0  0  0  0  0  0  0  0  0  0  0
  147.4948    4.5634   -0.0616 H   0  0  0  0  0  0  0  0  0  0  0  0
  149.2911    0.7413   -0.0161 H   0  0  0  0  0  0  0  0  0  0  0  0
  150.1440    4.4848   -0.0629 H   0  0  0  0  0  0  0  0  0  0  0  0
  152.7308    4.5369   -0.0667 H   0  0  0  0  0  0  0  0  0  0  0  0
  154.6587    2.6437   -0.0446 H   0  0  0  0  0  0  0  0  0  0  0  0
  154.6255   -2.6967    0.0232 H   0  0  0  0  0  0  0  0  0  0  0  0
  152.6901   -4.5548    0.0480 H   0  0  0  0  0  0  0  0  0  0  0  0
  150.8943   -0.7325    0.0014 H   0  0  0  0  0  0  0  0  0  0  0  0
  150.0415   -4.4763    0.0494 H   0  0  0  0  0  0  0  0  0  0  0  0
  147.4540   -4.5285    0.0519 H   0  0  0  0  0  0  0  0  0  0  0  0
  145.5266   -2.6349    0.0287 H   0  0  0  0  0  0  0  0  0  0  0  0
  162.7401   -0.0141    0.0012 C   0  0  0  0  0  0  0  0  0  0  0  0
  163.3817    1.2393   -0.0293 C   0  0  0  0  0  0  0  0  0  0  0  0
  162.7671    2.5191   -0.0606 C   0  0  0  0  0  0  0  0  0  0  0  0
  163.7599    3.4606   -0.0845 C   0  0  0  0  0  0  0  0  0  0  0  0
  165.0082    2.7803   -0.0685 C   0  0  0  0  0  0  0  0  0  0  0  0
  164.7281    1.4414   -0.0348 N   0  0  0  0  0  0  0  0  0  0  0  0
  166.2743    3.3549   -0.0849 C   0  0  0  0  0  0  0  0  0  0  0  0
  167.5007    2.7087   -0.0702 C   0  0  0  0  0  0  0  0  0  0  0  0
  168.7709    3.4119   -0.0906 C   0  0  0  0  0  0  0  0  0  0  0  0
  169.7314    2.4647   -0.0665 C   0  0  0  0  0  0  0  0  0  0  0  0
  167.7088    1.3641   -0.0348 N   0  0  0  0  0  0  0  0  0  0  0  0
  169.0436    1.1870   -0.0316 C   0  0  0  0  0  0  0  0  0  0  0  0
  169.7106   -0.0553    0.0029 C   0  0  0  0  0  0  0  0  0  0  0  0
  169.0685   -1.3084    0.0380 C   0  0  0  0  0  0  0  0  0  0  0  0
  169.6827   -2.5882    0.0731 C   0  0  0  0  0  0  0  0  0  0  0  0
  168.6896   -3.5297    0.0972 C   0  0  0  0  0  0  0  0  0  0  0  0
  167.4416   -2.8492    0.0779 C   0  0  0  0  0  0  0  0  0  0  0  0
  167.7218   -1.5106    0.0425 N   0  0  0  0  0  0  0  0  0  0  0  0
  166.1754   -3.4245    0.0915 C   0  0  0  0  0  0  0  0  0  0  0  0
  164.9491   -2.7789    0.0734 C   0  0  0  0  0  0  0  0  0  0  0  0
  163.6786   -3.4818    0.0899 C   0  0  0  0  0  0  0  0  0  0  0  0
  162.7184   -2.5343    0.0647 C   0  0  0  0  0  0  0  0  0  0  0  0
  163.4068   -1.2568    0.0329 C   0  0  0  0  0  0  0  0  0  0  0  0
  164.7411   -1.4340    0.0388 N   0  0  0  0  0  0  0  0  0  0  0  0
  161.7019    2.6862   -0.0640 H   0  0  0  0  0  0  0  0  0  0  0  0
  163.6477    4.5328   -0.1110 H   0  0  0  0  0  0  0  0  0  0  0  0
  165.4213    0.7007   -0.0169 H   0  0  0  0  0  0  0  0  0  0  0  0
  166.2944    4.4399   -0.1128 H   0  0  0  0  0  0  0  0  0  0  0  0
  168.8791    4.4848   -0.1193 H   0  0  0  0  0  0  0  0  0  0  0  0
  170.8027    2.5877   -0.0711 H   0  0  0  0  0  0  0  0  0  0  0  0
  170.7478   -2.7556    0.0784 H   0  0  0  0  0  0  0  0  0  0  0  0
  168.8015   -4.6018    0.1258 H   0  0  0  0  0  0  0  0  0  0  0  0
  167.0287   -0.7698    0.0219 H   0  0  0  0  0  0  0  0  0  0  0  0
  166.1557   -4.5095    0.1197 H   0  0  0  0  0  0  0  0  0  0  0  0
  163.5699   -4.5547    0.1172 H   0  0  0  0  0  0  0  0  0  0  0  0
  161.6470   -2.6570    0.0668 H   0  0  0  0  0  0  0  0  0  0  0  0
  1  2  4  0  0  0  0
  2  3  4  0  0  0  0
  3  4  2  0  0  0  0
  4  5  4  0  0  0  0
  2  6  4  0  0  0  0
  5  6  4  0  0  0  0
  5  7  4  0  0  0  0
  7  8  4  0  0  0  0
  8  9  1  0  0  0  0
  9 10  2  0  0  0  0
  8 11  4  0  0  0  0
 10 12  1  0  0  0  0
 11 12  4  0  0  0  0
 12 13  4  0  0  0  0
 13 14  4  0  0  0  0
 14 15  4  0  0  0  0
 15 16  2  0  0  0  0
 16 17  4  0  0  0  0
 14 18  4  0  0  0  0
 17 18  4  0  0  0  0
 17 19  4  0  0  0  0
 19 20  4  0  0  0  0
 20 21  1  0  0  0  0
 21 22  2  0  0  0  0
  1 23  4  0  0  0  0
 22 23  1  0  0  0  0
 20 24  4  0  0  0  0
 23 24  4  0  0  0  0
  1 25  1  0  0  0  0
  3 26  1  0  0  0  0
  4 27  1  0  0  0  0
  6 28  1  0  0  0  0
  7 29  1  0  0  0  0
  9 30  1  0  0  0  0
 10 31  1  0  0  0  0
 15 32  1  0  0  0  0
 16 33  1  0  0  0  0
 18 34  1  0  0  0  0
 19 35  1  0  0  0  0
 21 36  1  0  0  0  0
 22 37  1  0  0  0  0
 38 39  4  0  0  0  0
 39 40  4  0  0  0  0
 40 41  2  0  0  0  0
 41 42  4  0  0  0  0
 39 43  4  0  0  0  0
 42 43  4  0  0  0  0
 42 44  4  0  0  0  0
 44 45  4  0  0  0  0
 45 46  1  0  0  0  0
 46 47  2  0  0  0  0
 45 48  4  0  0  0  0
 47 49  1  0  0  0  0
 48 49  4  0  0  0  0
 49 50  4  0  0  0  0
 50 51  4  0  0  0  0
 51 52  4  0  0  0  0
 52 53  2  0  0  0  0
 53 54  4  0  0  0  0
 51 55  4  0  0  0  0
 54 55  4  0  0  0  0
 54 56  4  0  0  0  0
 56 57  4  0  0  0  0
 57 58  1  0  0  0  0
 58 59  2  0  0  0  0
 38 60  4  0  0  0  0
 59 60  1  0  0  0  0
 57 61  4  0  0  0  0
 60 61  4  0  0  0  0
 38 62  1  0  0  0  0
 40 63  1  0  0  0  0
 41 64  1  0  0  0  0
 43 65  1  0  0  0  0
 44 66  1  0  0  0  0
 46 67  1  0  0  0  0
 47 68  1  0  0  0  0
 52 69  1  0  0  0  0
 53 70  1  0  0  0  0
 55 71  1  0  0  0  0
 56 72  1  0  0  0  0
 58 73  1  0  0  0  0
 59 74  1  0  0  0  0
 75 76  3  0  0  0  0
 76 77  4  0  0  0  0
 13 78  4  0  0  0  0
 77 78  3  0  0  0  0
 75 79  4  0  0  0  0
 79 80  3  0  0  0  0
 81 82  3  0  0  0  0
 82 83  4  0  0  0  0
 83 84  3  0  0  0  0
 81 85  4  0  0  0  0
 85 86  3  0  0  0  0
 87 88  3  0  0  0  0
 88 89  4  0  0  0  0
 89 90  3  0  0  0  0
 87 91  4  0  0  0  0
 91 92  3  0  0  0  0
 93 94  3  0  0  0  0
 94 95  4  0  0  0  0
 95 96  3  0  0  0  0
 93 97  4  0  0  0  0
 97 98  3  0  0  0  0
 99100  3  0  0  0  0
100101  4  0  0  0  0
101102  3  0  0  0  0
 99103  4  0  0  0  0
103104  3  0  0  0  0
105106  3  0  0  0  0
106107  4  0  0  0  0
107108  3  0  0  0  0
105109  4  0  0  0  0
109110  3  0  0  0  0
111112  3  0  0  0  0
112113  4  0  0  0  0
113114  3  0  0  0  0
111115  4  0  0  0  0
115116  3  0  0  0  0
117118  3  0  0  0  0
118119  4  0  0  0  0
119120  3  0  0  0  0
117121  4  0  0  0  0
 50122  4  0  0  0  0
121122  3  0  0  0  0
 80123  4  0  0  0  0
123124  4  0  0  0  0
124125  4  0  0  0  0
125126  2  0  0  0  0
126127  4  0  0  0  0
124128  4  0  0  0  0
127128  4  0  0  0  0
127129  4  0  0  0  0
129130  4  0  0  0  0
130131  1  0  0  0  0
131132  2  0  0  0  0
130133  4  0  0  0  0
132134  1  0  0  0  0
133134  4  0  0  0  0
 84135  4  0  0  0  0
134135  4  0  0  0  0
135136  4  0  0  0  0
136137  4  0  0  0  0
137138  2  0  0  0  0
138139  4  0  0  0  0
136140  4  0  0  0  0
139140  4  0  0  0  0
139141  4  0  0  0  0
141142  4  0  0  0  0
142143  1  0  0  0  0
143144  2  0  0  0  0
123145  4  0  0  0  0
144145  1  0  0  0  0
142146  4  0  0  0  0
145146  4  0  0  0  0
125147  1  0  0  0  0
126148  1  0  0  0  0
128149  1  0  0  0  0
129150  1  0  0  0  0
131151  1  0  0  0  0
132152  1  0  0  0  0
137153  1  0  0  0  0
138154  1  0  0  0  0
140155  1  0  0  0  0
141156  1  0  0  0  0
143157  1  0  0  0  0
144158  1  0  0  0  0
 86159  4  0  0  0  0
159160  4  0  0  0  0
160161  4  0  0  0  0
161162  2  0  0  0  0
162163  4  0  0  0  0
160164  4  0  0  0  0
163164  4  0  0  0  0
163165  4  0  0  0  0
165166  4  0  0  0  0
166167  1  0  0  0  0
167168  2  0  0  0  0
166169  4  0  0  0  0
168170  1  0  0  0  0
169170  4  0  0  0  0
 90171  4  0  0  0  0
170171  4  0  0  0  0
171172  4  0  0  0  0
172173  4  0  0  0  0
173174  2  0  0  0  0
174175  4  0  0  0  0
172176  4  0  0  0  0
175176  4  0  0  0  0
175177  4  0  0  0  0
177178  4  0  0  0  0
178179  1  0  0  0  0
179180  2  0  0  0  0
159181  4  0  0  0  0
180181  1  0  0  0  0
178182  4  0  0  0  0
181182  4  0  0  0  0
161183  1  0  0  0  0
162184  1  0  0  0  0
164185  1  0  0  0  0
165186  1  0  0  0  0
167187  1  0  0  0  0
168188  1  0  0  0  0
173189  1  0  0  0  0
174190  1  0  0  0  0
176191  1  0  0  0  0
177192  1  0  0  0  0
179193  1  0  0  0  0
180194  1  0  0  0  0
 92195  4  0  0  0  0
195196  4  0  0  0  0
196197  4  0  0  0  0
197198  2  0  0  0  0
198199  4  0  0  0  0
196200  4  0  0  0  0
199200  4  0  0  0  0
199201  4  0  0  0  0
201202  4  0  0  0  0
202203  1  0  0  0  0
203204  2  0  0  0  0
202205  4  0  0  0  0
204206  1  0  0  0  0
205206  4  0  0  0  0
 96207  4  0  0  0  0
206207  4  0  0  0  0
207208  4  0  0  0  0
208209  4  0  0  0  0
209210  2  0  0  0  0
210211  4  0  0  0  0
208212  4  0  0  0  0
211212  4  0  0  0  0
211213  4  0  0  0  0
213214  4  0  0  0  0
214215  1  0  0  0  0
215216  2  0  0  0  0
195217  4  0  0  0  0
216217  1  0  0  0  0
214218  4  0  0  0  0
217218  4  0  0  0  0
197219  1  0  0  0  0
198220  1  0  0  0  0
200221  1  0  0  0  0
201222  1  0  0  0  0
203223  1  0  0  0  0
204224  1  0  0  0  0
209225  1  0  0  0  0
210226  1  0  0  0  0
212227  1  0  0  0  0
213228  1  0  0  0  0
215229  1  0  0  0  0
216230  1  0  0  0  0
 98231  4  0  0  0  0
231232  4  0  0  0  0
232233  4  0  0  0  0
233234  2  0  0  0  0
234235  4  0  0  0  0
232236  4  0  0  0  0
235236  4  0  0  0  0
235237  4  0  0  0  0
237238  4  0  0  0  0
238239  1  0  0  0  0
239240  2  0  0  0  0
238241  4  0  0  0  0
240242  1  0  0  0  0
241242  4  0  0  0  0
102243  4  0  0  0  0
242243  4  0  0  0  0
243244  4  0  0  0  0
244245  4  0  0  0  0
245246  2  0  0  0  0
246247  4  0  0  0  0
244248  4  0  0  0  0
247248  4  0  0  0  0
247249  4  0  0  0  0
249250  4  0  0  0  0
250251  1  0  0  0  0
251252  2  0  0  0  0
231253  4  0  0  0  0
252253  1  0  0  0  0
250254  4  0  0  0  0
253254  4  0  0  0  0
233255  1  0  0  0  0
234256  1  0  0  0  0
236257  1  0  0  0  0
237258  1  0  0  0  0
239259  1  0  0  0  0
240260  1  0  0  0  0
245261  1  0  0  0  0
246262  1  0  0  0  0
248263  1  0  0  0  0
249264  1  0  0  0  0
251265  1  0  0  0  0
252266  1  0  0  0  0
104267  4  0  0  0  0
267268  4  0  0  0  0
268269  4  0  0  0  0
269270  2  0  0  0  0
270271  4  0  0  0  0
268272  4  0  0  0  0
271272  4  0  0  0  0
271273  4  0  0  0  0
273274  4  0  0  0  0
274275  1  0  0  0  0
275276  2  0  0  0  0
274277  4  0  0  0  0
276278  1  0  0  0  0
277278  4  0  0  0  0
108279  4  0  0  0  0
278279  4  0  0  0  0
279280  4  0  0  0  0
280281  4  0  0  0  0
281282  2  0  0  0  0
282283  4  0  0  0  0
280284  4  0  0  0  0
283284  4  0  0  0  0
283285  4  0  0  0  0
285286  4  0  0  0  0
286287  1  0  0  0  0
287288  2  0  0  0  0
267289  4  0  0  0  0
288289  1  0  0  0  0
286290  4  0  0  0  0
289290  4  0  0  0  0
269291  1  0  0  0  0
270292  1  0  0  0  0
272293  1  0  0  0  0
273294  1  0  0  0  0
275295  1  0  0  0  0
276296  1  0  0  0  0
281297  1  0  0  0  0
282298  1  0  0  0  0
284299  1  0  0  0  0
285300  1  0  0  0  0
287301  1  0  0  0  0
288302  1  0  0  0  0
110303  4  0  0  0  0
303304  4  0  0  0  0
304305  4  0  0  0  0
305306  2  0  0  0  0
306307  4  0  0  0  0
304308  4  0  0  0  0
307308  4  0  0  0  0
307309  4  0  0  0  0
309310  4  0  0  0  0
310311  1  0  0  0  0
311312  2  0  0  0  0
310313  4  0  0  0  0
312314  1  0  0  0  0
313314  4  0  0  0  0
114315  4  0  0  0  0
314315  4  0  0  0  0
315316  4  0  0  0  0
316317  4  0  0  0  0
317318  2  0  0  0  0
318319  4  0  0  0  0
316320  4  0  0  0  0
319320  4  0  0  0  0
319321  4  0  0  0  0
321322  4  0  0  0  0
322323  1  0  0  0  0
323324  2  0  0  0  0
303325  4  0  0  0  0
324325  1  0  0  0  0
322326  4  0  0  0  0
325326  4  0  0  0  0
305327  1  0  0  0  0
306328  1  0  0  0  0
308329  1  0  0  0  0
309330  1  0  0  0  0
311331  1  0  0  0  0
312332  1  0  0  0  0
317333  1  0  0  0  0
318334  1  0  0  0  0
320335  1  0  0  0  0
321336  1  0  0  0  0
323337  1  0  0  0  0
324338  1  0  0  0  0
116339  4  0  0  0  0
339340  4  0  0  0  0
340341  4  0  0  0  0
341342  2  0  0  0  0
342343  4  0  0  0  0
340344  4  0  0  0  0
343344  4  0  0  0  0
343345  4  0  0  0  0
345346  4  0  0  0  0
346347  1  0  0  0  0
347348  2  0  0  0  0
346349  4  0  0  0  0
348350  1  0  0  0  0
349350  4  0  0  0  0
120351  4  0  0  0  0
350351  4  0  0  0  0
351352  4  0  0  0  0
352353  4  0  0  0  0
353354  2  0  0  0  0
354355  4  0  0  0  0
352356  4  0  0  0  0
355356  4  0  0  0  0
355357  4  0  0  0  0
357358  4  0  0  0  0
358359  1  0  0  0  0
359360  2  0  0  0  0
339361  4  0  0  0  0
360361  1  0  0  0  0
358362  4  0  0  0  0
361362  4  0  0  0  0
341363  1  0  0  0  0
342364  1  0  0  0  0
344365  1  0  0  0  0
345366  1  0  0  0  0
347367  1  0  0  0  0
348368  1  0  0  0  0
353369  1  0  0  0  0
354370  1  0  0  0  0
356371  1  0  0  0  0
357372  1  0  0  0  0
359373  1  0  0  0  0
360374  1  0  0  0  0
M  END
