 xtb: 6.5.1 (b24c23e)
          07302206173D

254289  0     0  0            999 V2000
   45.5583   -0.1197   -0.0868 C   0  0  0  0  0  0  0  0  0  0  0  0
   46.1773   -1.3260    0.2138 C   0  0  0  0  0  0  0  0  0  0  0  0
   45.5362   -2.5734    0.4567 C   0  0  0  0  0  0  0  0  0  0  0  0
   46.5032   -3.4959    0.7395 C   0  0  0  0  0  0  0  0  0  0  0  0
   47.7662   -2.8386    0.6889 C   0  0  0  0  0  0  0  0  0  0  0  0
   47.5198   -1.5380    0.3551 N   0  0  0  0  0  0  0  0  0  0  0  0
   49.0334   -3.3921    0.9100 C   0  0  0  0  0  0  0  0  0  0  0  0
   49.0779   -4.8203    1.2980 C   0  0  0  0  0  0  0  0  0  0  0  0
   49.7755   -5.7431    0.5117 C   0  0  0  0  0  0  0  0  0  0  0  0
   49.8188   -7.0790    0.8660 C   0  0  0  0  0  0  0  0  0  0  0  0
   49.1608   -7.4974    2.0191 C   0  0  0  0  0  0  0  0  0  0  0  0
   49.2024   -8.8994    2.3955 N   0  0  0  0  0  0  0  0  0  0  0  0
   49.8322   -9.6470    1.6921 O   0  0  0  0  0  0  0  0  0  0  0  0
   48.6043   -9.2281    3.3878 O   0  0  0  0  0  0  0  0  0  0  0  0
   48.4625   -6.5955    2.8169 C   0  0  0  0  0  0  0  0  0  0  0  0
   48.4226   -5.2622    2.4518 C   0  0  0  0  0  0  0  0  0  0  0  0
   50.2430   -2.7018    0.7883 C   0  0  0  0  0  0  0  0  0  0  0  0
   51.5420   -3.2773    1.0894 C   0  0  0  0  0  0  0  0  0  0  0  0
   52.4536   -2.3168    0.8331 C   0  0  0  0  0  0  0  0  0  0  0  0
   50.3858   -1.4089    0.3886 N   0  0  0  0  0  0  0  0  0  0  0  0
   51.7098   -1.1533    0.3898 C   0  0  0  0  0  0  0  0  0  0  0  0
   52.3373    0.0482    0.0036 C   0  0  0  0  0  0  0  0  0  0  0  0
   51.6935    1.2424   -0.3717 C   0  0  0  0  0  0  0  0  0  0  0  0
   52.3298    2.4496   -0.7643 C   0  0  0  0  0  0  0  0  0  0  0  0
   51.3572    3.3798   -1.0063 C   0  0  0  0  0  0  0  0  0  0  0  0
   50.0960    2.7686   -0.7621 C   0  0  0  0  0  0  0  0  0  0  0  0
   50.3506    1.4750   -0.3932 N   0  0  0  0  0  0  0  0  0  0  0  0
   48.8282    3.3466   -0.8983 C   0  0  0  0  0  0  0  0  0  0  0  0
   48.7864    4.7812   -1.2602 C   0  0  0  0  0  0  0  0  0  0  0  0
   48.1415    5.1994   -2.4287 C   0  0  0  0  0  0  0  0  0  0  0  0
   48.1014    6.5391   -2.7692 C   0  0  0  0  0  0  0  0  0  0  0  0
   48.7077    7.4714   -1.9318 C   0  0  0  0  0  0  0  0  0  0  0  0
   48.6673    8.8797   -2.2833 N   0  0  0  0  0  0  0  0  0  0  0  0
   48.0926    9.1853   -3.2965 O   0  0  0  0  0  0  0  0  0  0  0  0
   49.2123    9.6554   -1.5404 O   0  0  0  0  0  0  0  0  0  0  0  0
   49.3531    7.0769   -0.7632 C   0  0  0  0  0  0  0  0  0  0  0  0
   49.3919    5.7343   -0.4346 C   0  0  0  0  0  0  0  0  0  0  0  0
   47.6159    2.6706   -0.7185 C   0  0  0  0  0  0  0  0  0  0  0  0
   46.3045    3.2942   -0.8158 C   0  0  0  0  0  0  0  0  0  0  0  0
   45.4011    2.3188   -0.5952 C   0  0  0  0  0  0  0  0  0  0  0  0
   46.1589    1.1046   -0.3469 C   0  0  0  0  0  0  0  0  0  0  0  0
   47.4893    1.3573   -0.4174 N   0  0  0  0  0  0  0  0  0  0  0  0
   44.4736   -0.1453   -0.1144 H   0  0  0  0  0  0  0  0  0  0  0  0
   44.4707   -2.7322    0.4117 H   0  0  0  0  0  0  0  0  0  0  0  0
   46.3600   -4.5423    0.9542 H   0  0  0  0  0  0  0  0  0  0  0  0
   48.2393   -0.8338    0.2299 H   0  0  0  0  0  0  0  0  0  0  0  0
   50.2711   -5.4078   -0.3918 H   0  0  0  0  0  0  0  0  0  0  0  0
   50.3523   -7.8015    0.2600 H   0  0  0  0  0  0  0  0  0  0  0  0
   47.9629   -6.9455    3.7123 H   0  0  0  0  0  0  0  0  0  0  0  0
   47.8957   -4.5484    3.0744 H   0  0  0  0  0  0  0  0  0  0  0  0
   51.7118   -4.2745    1.4615 H   0  0  0  0  0  0  0  0  0  0  0  0
   53.5258   -2.3624    0.9367 H   0  0  0  0  0  0  0  0  0  0  0  0
   53.3964    2.5794   -0.8509 H   0  0  0  0  0  0  0  0  0  0  0  0
   51.4985    4.3958   -1.3369 H   0  0  0  0  0  0  0  0  0  0  0  0
   49.6324    0.7924   -0.1743 H   0  0  0  0  0  0  0  0  0  0  0  0
   47.6861    4.4630   -3.0804 H   0  0  0  0  0  0  0  0  0  0  0  0
   47.6097    6.8715   -3.6755 H   0  0  0  0  0  0  0  0  0  0  0  0
   49.8131    7.8223   -0.1257 H   0  0  0  0  0  0  0  0  0  0  0  0
   49.8783    5.4169    0.4805 H   0  0  0  0  0  0  0  0  0  0  0  0
   46.1243    4.3388   -1.0122 H   0  0  0  0  0  0  0  0  0  0  0  0
   44.3247    2.3853   -0.5835 H   0  0  0  0  0  0  0  0  0  0  0  0
   92.6403    0.0395   -0.1455 C   0  0  0  0  0  0  0  0  0  0  0  0
   92.0242    1.2292   -0.5110 C   0  0  0  0  0  0  0  0  0  0  0  0
   92.6690    2.4225   -0.9427 C   0  0  0  0  0  0  0  0  0  0  0  0
   91.7041    3.3594   -1.1823 C   0  0  0  0  0  0  0  0  0  0  0  0
   90.4388    2.7707   -0.8959 C   0  0  0  0  0  0  0  0  0  0  0  0
   90.6818    1.4848   -0.5071 N   0  0  0  0  0  0  0  0  0  0  0  0
   89.1726    3.3577   -1.0104 C   0  0  0  0  0  0  0  0  0  0  0  0
   89.1346    4.7819   -1.4145 C   0  0  0  0  0  0  0  0  0  0  0  0
   88.4615    5.1709   -2.5770 C   0  0  0  0  0  0  0  0  0  0  0  0
   88.4234    6.5000   -2.9567 C   0  0  0  0  0  0  0  0  0  0  0  0
   89.0619    7.4509   -2.1655 C   0  0  0  0  0  0  0  0  0  0  0  0
   89.0235    8.8486   -2.5581 N   0  0  0  0  0  0  0  0  0  0  0  0
   88.4194    9.1296   -3.5612 O   0  0  0  0  0  0  0  0  0  0  0  0
   89.5985    9.6406   -1.8561 O   0  0  0  0  0  0  0  0  0  0  0  0
   89.7372    7.0854   -1.0045 C   0  0  0  0  0  0  0  0  0  0  0  0
   89.7723    5.7531   -0.6359 C   0  0  0  0  0  0  0  0  0  0  0  0
   87.9601    2.7043   -0.7719 C   0  0  0  0  0  0  0  0  0  0  0  0
   86.6603    3.3482   -0.8452 C   0  0  0  0  0  0  0  0  0  0  0  0
   85.7468    2.3970   -0.5623 C   0  0  0  0  0  0  0  0  0  0  0  0
   87.8152    1.3970   -0.4230 N   0  0  0  0  0  0  0  0  0  0  0  0
   86.4900    1.1793   -0.3006 C   0  0  0  0  0  0  0  0  0  0  0  0
   85.8612   -0.0361    0.0362 C   0  0  0  0  0  0  0  0  0  0  0  0
   86.5023   -1.2423    0.3753 C   0  0  0  0  0  0  0  0  0  0  0  0
   85.8624   -2.4672    0.7021 C   0  0  0  0  0  0  0  0  0  0  0  0
   86.8328   -3.3896    0.9792 C   0  0  0  0  0  0  0  0  0  0  0  0
   88.0967   -2.7520    0.8369 C   0  0  0  0  0  0  0  0  0  0  0  0
   87.8451   -1.4591    0.4632 N   0  0  0  0  0  0  0  0  0  0  0  0
   89.3634   -3.3247    1.0011 C   0  0  0  0  0  0  0  0  0  0  0  0
   89.4032   -4.7387    1.4375 C   0  0  0  0  0  0  0  0  0  0  0  0
   90.0217   -5.7072    0.6401 C   0  0  0  0  0  0  0  0  0  0  0  0
   90.0574   -7.0302    1.0406 C   0  0  0  0  0  0  0  0  0  0  0  0
   89.4735   -7.3891    2.2523 C   0  0  0  0  0  0  0  0  0  0  0  0
   89.5076   -8.7771    2.6776 N   0  0  0  0  0  0  0  0  0  0  0  0
   90.0578   -9.5683    1.9553 O   0  0  0  0  0  0  0  0  0  0  0  0
   88.9822   -9.0519    3.7260 O   0  0  0  0  0  0  0  0  0  0  0  0
   88.8559   -6.4406    3.0627 C   0  0  0  0  0  0  0  0  0  0  0  0
   88.8212   -5.1211    2.6505 C   0  0  0  0  0  0  0  0  0  0  0  0
   90.5770   -2.6634    0.7800 C   0  0  0  0  0  0  0  0  0  0  0  0
   91.8876   -3.2553    1.0035 C   0  0  0  0  0  0  0  0  0  0  0  0
   92.7929   -2.3121    0.6764 C   0  0  0  0  0  0  0  0  0  0  0  0
   92.0372   -1.1406    0.2678 C   0  0  0  0  0  0  0  0  0  0  0  0
   90.7062   -1.3859    0.3527 N   0  0  0  0  0  0  0  0  0  0  0  0
   93.7248    0.0439   -0.1846 H   0  0  0  0  0  0  0  0  0  0  0  0
   93.7352    2.5345   -1.0565 H   0  0  0  0  0  0  0  0  0  0  0  0
   91.8501    4.3667   -1.5370 H   0  0  0  0  0  0  0  0  0  0  0  0
   89.9602    0.8179   -0.2546 H   0  0  0  0  0  0  0  0  0  0  0  0
   87.9806    4.4196   -3.1925 H   0  0  0  0  0  0  0  0  0  0  0  0
   87.9083    6.8099   -3.8580 H   0  0  0  0  0  0  0  0  0  0  0  0
   90.2225    7.8451   -0.4036 H   0  0  0  0  0  0  0  0  0  0  0  0
   90.2814    5.4588    0.2746 H   0  0  0  0  0  0  0  0  0  0  0  0
   86.4906    4.3890   -1.0676 H   0  0  0  0  0  0  0  0  0  0  0  0
   84.6735    2.4881   -0.5158 H   0  0  0  0  0  0  0  0  0  0  0  0
   84.7948   -2.6159    0.7151 H   0  0  0  0  0  0  0  0  0  0  0  0
   86.6882   -4.4237    1.2458 H   0  0  0  0  0  0  0  0  0  0  0  0
   88.5655   -0.7710    0.2697 H   0  0  0  0  0  0  0  0  0  0  0  0
   90.4594   -5.4181   -0.3082 H   0  0  0  0  0  0  0  0  0  0  0  0
   90.5282   -7.7881    0.4262 H   0  0  0  0  0  0  0  0  0  0  0  0
   88.4135   -6.7445    4.0038 H   0  0  0  0  0  0  0  0  0  0  0  0
   88.3562   -4.3715    3.2801 H   0  0  0  0  0  0  0  0  0  0  0  0
   92.0660   -4.2516    1.3746 H   0  0  0  0  0  0  0  0  0  0  0  0
   93.8694   -2.3692    0.7083 H   0  0  0  0  0  0  0  0  0  0  0  0
   54.9653    0.0799   -0.0310 C   0  0  0  0  0  0  0  0  0  0  0  0
   53.7433    0.0692   -0.0097 C   0  0  0  0  0  0  0  0  0  0  0  0
   56.3144    0.0801   -0.0511 C   0  0  0  0  0  0  0  0  0  0  0  0
   57.5365    0.0705   -0.0670 C   0  0  0  0  0  0  0  0  0  0  0  0
   68.4234    0.0123   -0.0007 C   0  0  0  0  0  0  0  0  0  0  0  0
   67.2009    0.0223   -0.0159 C   0  0  0  0  0  0  0  0  0  0  0  0
   69.7718    0.0003    0.0066 C   0  0  0  0  0  0  0  0  0  0  0  0
   70.9942   -0.0185    0.0109 C   0  0  0  0  0  0  0  0  0  0  0  0
   81.8833   -0.0959    0.0240 C   0  0  0  0  0  0  0  0  0  0  0  0
   80.6613   -0.1047    0.0080 C   0  0  0  0  0  0  0  0  0  0  0  0
   83.2328   -0.0804    0.0351 C   0  0  0  0  0  0  0  0  0  0  0  0
   84.4546   -0.0585    0.0412 C   0  0  0  0  0  0  0  0  0  0  0  0
   58.9417    0.0541   -0.0778 C   0  0  0  0  0  0  0  0  0  0  0  0
   59.5759    1.0600   -0.8318 C   0  0  0  0  0  0  0  0  0  0  0  0
   58.9344    2.0892   -1.5682 C   0  0  0  0  0  0  0  0  0  0  0  0
   59.9034    2.8267   -2.1919 C   0  0  0  0  0  0  0  0  0  0  0  0
   61.1651    2.2633   -1.8580 C   0  0  0  0  0  0  0  0  0  0  0  0
   60.9173    1.2070   -1.0243 N   0  0  0  0  0  0  0  0  0  0  0  0
   62.4289    2.7046   -2.2722 C   0  0  0  0  0  0  0  0  0  0  0  0
   62.4491    3.8375   -3.2274 C   0  0  0  0  0  0  0  0  0  0  0  0
   63.0795    5.0388   -2.8892 C   0  0  0  0  0  0  0  0  0  0  0  0
   63.1005    6.0967   -3.7798 C   0  0  0  0  0  0  0  0  0  0  0  0
   62.4897    5.9508   -5.0221 C   0  0  0  0  0  0  0  0  0  0  0  0
   62.5109    7.0576   -5.9626 N   0  0  0  0  0  0  0  0  0  0  0  0
   61.9616    6.8984   -7.0224 O   0  0  0  0  0  0  0  0  0  0  0  0
   63.0757    8.0657   -5.6242 O   0  0  0  0  0  0  0  0  0  0  0  0
   61.8581    4.7629   -5.3790 C   0  0  0  0  0  0  0  0  0  0  0  0
   61.8379    3.7132   -4.4790 C   0  0  0  0  0  0  0  0  0  0  0  0
   63.6514    2.1665   -1.8656 C   0  0  0  0  0  0  0  0  0  0  0  0
   64.9413    2.6166   -2.3586 C   0  0  0  0  0  0  0  0  0  0  0  0
   65.8721    1.8710   -1.7284 C   0  0  0  0  0  0  0  0  0  0  0  0
   63.8193    1.1505   -0.9753 N   0  0  0  0  0  0  0  0  0  0  0  0
   65.1492    0.9591   -0.8636 C   0  0  0  0  0  0  0  0  0  0  0  0
   65.7964    0.0230   -0.0323 C   0  0  0  0  0  0  0  0  0  0  0  0
   65.1616   -0.9319    0.7857 C   0  0  0  0  0  0  0  0  0  0  0  0
   65.8028   -1.8642    1.6417 C   0  0  0  0  0  0  0  0  0  0  0  0
   64.8339   -2.6285    2.2321 C   0  0  0  0  0  0  0  0  0  0  0  0
   63.5725   -2.1891    1.7454 C   0  0  0  0  0  0  0  0  0  0  0  0
   63.8207   -1.1539    0.8851 N   0  0  0  0  0  0  0  0  0  0  0  0
   62.3091   -2.6905    2.0839 C   0  0  0  0  0  0  0  0  0  0  0  0
   62.2870   -3.8524    3.0034 C   0  0  0  0  0  0  0  0  0  0  0  0
   62.9120   -5.0502    2.6432 C   0  0  0  0  0  0  0  0  0  0  0  0
   62.8932   -6.1379    3.4972 C   0  0  0  0  0  0  0  0  0  0  0  0
   62.2483   -6.0252    4.7255 C   0  0  0  0  0  0  0  0  0  0  0  0
   62.2301   -7.1630    5.6285 N   0  0  0  0  0  0  0  0  0  0  0  0
   61.6560   -7.0314    6.6787 O   0  0  0  0  0  0  0  0  0  0  0  0
   62.7916   -8.1665    5.2714 O   0  0  0  0  0  0  0  0  0  0  0  0
   61.6218   -4.8414    5.1042 C   0  0  0  0  0  0  0  0  0  0  0  0
   61.6419   -3.7614    4.2407 C   0  0  0  0  0  0  0  0  0  0  0  0
   61.0872   -2.1886    1.6308 C   0  0  0  0  0  0  0  0  0  0  0  0
   59.7985   -2.7744    1.9554 C   0  0  0  0  0  0  0  0  0  0  0  0
   58.8675   -2.0058    1.3539 C   0  0  0  0  0  0  0  0  0  0  0  0
   59.5892   -0.9615    0.6535 C   0  0  0  0  0  0  0  0  0  0  0  0
   60.9192   -1.1047    0.8252 N   0  0  0  0  0  0  0  0  0  0  0  0
   57.8679    2.2406   -1.6083 H   0  0  0  0  0  0  0  0  0  0  0  0
   59.7584    3.6912   -2.8189 H   0  0  0  0  0  0  0  0  0  0  0  0
   61.6345    0.6210   -0.6102 H   0  0  0  0  0  0  0  0  0  0  0  0
   63.5405    5.1441   -1.9141 H   0  0  0  0  0  0  0  0  0  0  0  0
   63.5813    7.0334   -3.5248 H   0  0  0  0  0  0  0  0  0  0  0  0
   61.3940    4.6731   -6.3539 H   0  0  0  0  0  0  0  0  0  0  0  0
   61.3612    2.7785   -4.7506 H   0  0  0  0  0  0  0  0  0  0  0  0
   65.0930    3.3877   -3.0963 H   0  0  0  0  0  0  0  0  0  0  0  0
   66.9449    1.9075   -1.8288 H   0  0  0  0  0  0  0  0  0  0  0  0
   66.8689   -1.9318    1.7858 H   0  0  0  0  0  0  0  0  0  0  0  0
   64.9790   -3.4194    2.9497 H   0  0  0  0  0  0  0  0  0  0  0  0
   63.1036   -0.6288    0.3959 H   0  0  0  0  0  0  0  0  0  0  0  0
   63.3990   -5.1301    1.6782 H   0  0  0  0  0  0  0  0  0  0  0  0
   63.3691   -7.0720    3.2239 H   0  0  0  0  0  0  0  0  0  0  0  0
   61.1300   -4.7784    6.0674 H   0  0  0  0  0  0  0  0  0  0  0  0
   61.1691   -2.8299    4.5293 H   0  0  0  0  0  0  0  0  0  0  0  0
   59.6482   -3.6608    2.5499 H   0  0  0  0  0  0  0  0  0  0  0  0
   57.7954   -2.1189    1.3597 H   0  0  0  0  0  0  0  0  0  0  0  0
   72.3987   -0.0370    0.0041 C   0  0  0  0  0  0  0  0  0  0  0  0
   73.0327    0.9507   -0.7744 C   0  0  0  0  0  0  0  0  0  0  0  0
   72.3902    1.9697   -1.5241 C   0  0  0  0  0  0  0  0  0  0  0  0
   73.3586    2.7036   -2.1525 C   0  0  0  0  0  0  0  0  0  0  0  0
   74.6212    2.1473   -1.8094 C   0  0  0  0  0  0  0  0  0  0  0  0
   74.3739    1.0978   -0.9664 N   0  0  0  0  0  0  0  0  0  0  0  0
   75.8845    2.5920   -2.2198 C   0  0  0  0  0  0  0  0  0  0  0  0
   75.9032    3.7261   -3.1739 C   0  0  0  0  0  0  0  0  0  0  0  0
   76.5215    4.9318   -2.8292 C   0  0  0  0  0  0  0  0  0  0  0  0
   76.5386    5.9919   -3.7174 C   0  0  0  0  0  0  0  0  0  0  0  0
   75.9362    5.8436   -4.9634 C   0  0  0  0  0  0  0  0  0  0  0  0
   75.9528    6.9530   -5.9012 N   0  0  0  0  0  0  0  0  0  0  0  0
   75.4141    6.7902   -6.9658 O   0  0  0  0  0  0  0  0  0  0  0  0
   76.5029    7.9666   -5.5554 O   0  0  0  0  0  0  0  0  0  0  0  0
   75.3173    4.6511   -5.3269 C   0  0  0  0  0  0  0  0  0  0  0  0
   75.3010    3.5991   -4.4295 C   0  0  0  0  0  0  0  0  0  0  0  0
   77.1079    2.0578   -1.8103 C   0  0  0  0  0  0  0  0  0  0  0  0
   78.3973    2.5165   -2.2966 C   0  0  0  0  0  0  0  0  0  0  0  0
   79.3292    1.7681   -1.6716 C   0  0  0  0  0  0  0  0  0  0  0  0
   77.2769    1.0353   -0.9282 N   0  0  0  0  0  0  0  0  0  0  0  0
   78.6075    0.8451   -0.8175 C   0  0  0  0  0  0  0  0  0  0  0  0
   79.2556   -0.1071   -0.0062 C   0  0  0  0  0  0  0  0  0  0  0  0
   78.6228   -1.0752    0.7968 C   0  0  0  0  0  0  0  0  0  0  0  0
   79.2664   -2.0300    1.6259 C   0  0  0  0  0  0  0  0  0  0  0  0
   78.2977   -2.7864    2.2267 C   0  0  0  0  0  0  0  0  0  0  0  0
   77.0336   -2.3184    1.7747 C   0  0  0  0  0  0  0  0  0  0  0  0
   77.2806   -1.2794    0.9190 N   0  0  0  0  0  0  0  0  0  0  0  0
   75.7694   -2.7922    2.1485 C   0  0  0  0  0  0  0  0  0  0  0  0
   75.7487   -3.9502    3.0736 C   0  0  0  0  0  0  0  0  0  0  0  0
   76.3203   -5.1683    2.6935 C   0  0  0  0  0  0  0  0  0  0  0  0
   76.3023   -6.2519    3.5527 C   0  0  0  0  0  0  0  0  0  0  0  0
   75.7132   -6.1143    4.8062 C   0  0  0  0  0  0  0  0  0  0  0  0
   75.6970   -7.2476    5.7150 N   0  0  0  0  0  0  0  0  0  0  0  0
   75.1707   -7.0943    6.7871 O   0  0  0  0  0  0  0  0  0  0  0  0
   76.2120   -8.2694    5.3403 O   0  0  0  0  0  0  0  0  0  0  0  0
   75.1408   -4.9098    5.2050 C   0  0  0  0  0  0  0  0  0  0  0  0
   75.1587   -3.8342    4.3359 C   0  0  0  0  0  0  0  0  0  0  0  0
   74.5462   -2.2678    1.7270 C   0  0  0  0  0  0  0  0  0  0  0  0
   73.2556   -2.8235    2.0947 C   0  0  0  0  0  0  0  0  0  0  0  0
   72.3239   -2.0525    1.4973 C   0  0  0  0  0  0  0  0  0  0  0  0
   73.0466   -1.0358    0.7584 C   0  0  0  0  0  0  0  0  0  0  0  0
   74.3772   -1.1950    0.9064 N   0  0  0  0  0  0  0  0  0  0  0  0
   71.3235    2.1187   -1.5677 H   0  0  0  0  0  0  0  0  0  0  0  0
   73.2127    3.5615   -2.7882 H   0  0  0  0  0  0  0  0  0  0  0  0
   75.0916    0.5178   -0.5448 H   0  0  0  0  0  0  0  0  0  0  0  0
   76.9759    5.0389   -1.8513 H   0  0  0  0  0  0  0  0  0  0  0  0
   77.0100    6.9320   -3.4573 H   0  0  0  0  0  0  0  0  0  0  0  0
   74.8595    4.5595   -6.3046 H   0  0  0  0  0  0  0  0  0  0  0  0
   74.8339    2.6609   -4.7058 H   0  0  0  0  0  0  0  0  0  0  0  0
   78.5478    3.2948   -3.0269 H   0  0  0  0  0  0  0  0  0  0  0  0
   80.4020    1.8085   -1.7702 H   0  0  0  0  0  0  0  0  0  0  0  0
   80.3341   -2.1168    1.7459 H   0  0  0  0  0  0  0  0  0  0  0  0
   78.4445   -3.5899    2.9297 H   0  0  0  0  0  0  0  0  0  0  0  0
   76.5622   -0.7355    0.4527 H   0  0  0  0  0  0  0  0  0  0  0  0
   76.7648   -5.2666    1.7099 H   0  0  0  0  0  0  0  0  0  0  0  0
   76.7363   -7.2018    3.2644 H   0  0  0  0  0  0  0  0  0  0  0  0
   74.6921   -4.8278    6.1877 H   0  0  0  0  0  0  0  0  0  0  0  0
   74.7274   -2.8873    4.6388 H   0  0  0  0  0  0  0  0  0  0  0  0
   73.1044   -3.6935    2.7128 H   0  0  0  0  0  0  0  0  0  0  0  0
   71.2504   -2.1466    1.5300 H   0  0  0  0  0  0  0  0  0  0  0  0
  1  2  4  0  0  0  0
  2  3  4  0  0  0  0
  3  4  2  0  0  0  0
  4  5  4  0  0  0  0
  2  6  4  0  0  0  0
  5  6  4  0  0  0  0
  5  7  4  0  0  0  0
  7  8  1  0  0  0  0
  8  9  4  0  0  0  0
  9 10  4  0  0  0  0
 10 11  4  0  0  0  0
 11 12  1  0  0  0  0
 12 13  2  0  0  0  0
 12 14  2  0  0  0  0
 13 14  1  0  0  0  0
 11 15  4  0  0  0  0
  8 16  4  0  0  0  0
 15 16  4  0  0  0  0
  7 17  4  0  0  0  0
 17 18  1  0  0  0  0
 18 19  2  0  0  0  0
 17 20  4  0  0  0  0
 19 21  1  0  0  0  0
 20 21  4  0  0  0  0
 21 22  4  0  0  0  0
 22 23  4  0  0  0  0
 23 24  4  0  0  0  0
 24 25  2  0  0  0  0
 25 26  4  0  0  0  0
 23 27  4  0  0  0  0
 26 27  4  0  0  0  0
 26 28  4  0  0  0  0
 28 29  1  0  0  0  0
 29 30  4  0  0  0  0
 30 31  4  0  0  0  0
 31 32  4  0  0  0  0
 32 33  1  0  0  0  0
 33 34  2  0  0  0  0
 33 35  2  0  0  0  0
 34 35  1  0  0  0  0
 32 36  4  0  0  0  0
 29 37  4  0  0  0  0
 36 37  4  0  0  0  0
 28 38  4  0  0  0  0
 38 39  1  0  0  0  0
 39 40  2  0  0  0  0
  1 41  4  0  0  0  0
 40 41  1  0  0  0  0
 38 42  4  0  0  0  0
 41 42  4  0  0  0  0
  1 43  1  0  0  0  0
  3 44  1  0  0  0  0
  4 45  1  0  0  0  0
  6 46  1  0  0  0  0
  9 47  1  0  0  0  0
 10 48  1  0  0  0  0
 15 49  1  0  0  0  0
 16 50  1  0  0  0  0
 18 51  1  0  0  0  0
 19 52  1  0  0  0  0
 24 53  1  0  0  0  0
 25 54  1  0  0  0  0
 27 55  1  0  0  0  0
 30 56  1  0  0  0  0
 31 57  1  0  0  0  0
 36 58  1  0  0  0  0
 37 59  1  0  0  0  0
 39 60  1  0  0  0  0
 40 61  1  0  0  0  0
 62 63  4  0  0  0  0
 63 64  4  0  0  0  0
 64 65  2  0  0  0  0
 65 66  4  0  0  0  0
 63 67  4  0  0  0  0
 66 67  4  0  0  0  0
 66 68  4  0  0  0  0
 68 69  1  0  0  0  0
 69 70  4  0  0  0  0
 70 71  4  0  0  0  0
 71 72  4  0  0  0  0
 72 73  1  0  0  0  0
 73 74  2  0  0  0  0
 73 75  2  0  0  0  0
 74 75  1  0  0  0  0
 72 76  4  0  0  0  0
 69 77  4  0  0  0  0
 76 77  4  0  0  0  0
 68 78  4  0  0  0  0
 78 79  1  0  0  0  0
 79 80  2  0  0  0  0
 78 81  4  0  0  0  0
 80 82  1  0  0  0  0
 81 82  4  0  0  0  0
 82 83  4  0  0  0  0
 83 84  4  0  0  0  0
 84 85  4  0  0  0  0
 85 86  2  0  0  0  0
 86 87  4  0  0  0  0
 84 88  4  0  0  0  0
 87 88  4  0  0  0  0
 87 89  4  0  0  0  0
 89 90  1  0  0  0  0
 90 91  4  0  0  0  0
 91 92  4  0  0  0  0
 92 93  4  0  0  0  0
 93 94  1  0  0  0  0
 94 95  2  0  0  0  0
 94 96  2  0  0  0  0
 95 96  1  0  0  0  0
 93 97  4  0  0  0  0
 90 98  4  0  0  0  0
 97 98  4  0  0  0  0
 89 99  4  0  0  0  0
 99100  1  0  0  0  0
100101  2  0  0  0  0
 62102  4  0  0  0  0
101102  1  0  0  0  0
 99103  4  0  0  0  0
102103  4  0  0  0  0
 62104  1  0  0  0  0
 64105  1  0  0  0  0
 65106  1  0  0  0  0
 67107  1  0  0  0  0
 70108  1  0  0  0  0
 71109  1  0  0  0  0
 76110  1  0  0  0  0
 77111  1  0  0  0  0
 79112  1  0  0  0  0
 80113  1  0  0  0  0
 85114  1  0  0  0  0
 86115  1  0  0  0  0
 88116  1  0  0  0  0
 91117  1  0  0  0  0
 92118  1  0  0  0  0
 97119  1  0  0  0  0
 98120  1  0  0  0  0
100121  1  0  0  0  0
101122  1  0  0  0  0
 22124  4  0  0  0  0
123124  3  0  0  0  0
123125  4  0  0  0  0
125126  3  0  0  0  0
127128  3  0  0  0  0
127129  4  0  0  0  0
129130  3  0  0  0  0
131132  3  0  0  0  0
131133  4  0  0  0  0
 83134  4  0  0  0  0
133134  3  0  0  0  0
126135  4  0  0  0  0
135136  4  0  0  0  0
136137  4  0  0  0  0
137138  2  0  0  0  0
138139  4  0  0  0  0
136140  4  0  0  0  0
139140  4  0  0  0  0
139141  4  0  0  0  0
141142  1  0  0  0  0
142143  4  0  0  0  0
143144  4  0  0  0  0
144145  4  0  0  0  0
145146  1  0  0  0  0
146147  2  0  0  0  0
146148  2  0  0  0  0
147148  1  0  0  0  0
145149  4  0  0  0  0
142150  4  0  0  0  0
149150  4  0  0  0  0
141151  4  0  0  0  0
151152  1  0  0  0  0
152153  2  0  0  0  0
151154  4  0  0  0  0
153155  1  0  0  0  0
154155  4  0  0  0  0
128156  4  0  0  0  0
155156  4  0  0  0  0
156157  4  0  0  0  0
157158  4  0  0  0  0
158159  2  0  0  0  0
159160  4  0  0  0  0
157161  4  0  0  0  0
160161  4  0  0  0  0
160162  4  0  0  0  0
162163  1  0  0  0  0
163164  4  0  0  0  0
164165  4  0  0  0  0
165166  4  0  0  0  0
166167  1  0  0  0  0
167168  2  0  0  0  0
167169  2  0  0  0  0
168169  1  0  0  0  0
166170  4  0  0  0  0
163171  4  0  0  0  0
170171  4  0  0  0  0
162172  4  0  0  0  0
172173  1  0  0  0  0
173174  2  0  0  0  0
135175  4  0  0  0  0
174175  1  0  0  0  0
172176  4  0  0  0  0
175176  4  0  0  0  0
137177  1  0  0  0  0
138178  1  0  0  0  0
140179  1  0  0  0  0
143180  1  0  0  0  0
144181  1  0  0  0  0
149182  1  0  0  0  0
150183  1  0  0  0  0
152184  1  0  0  0  0
153185  1  0  0  0  0
158186  1  0  0  0  0
159187  1  0  0  0  0
161188  1  0  0  0  0
164189  1  0  0  0  0
165190  1  0  0  0  0
170191  1  0  0  0  0
171192  1  0  0  0  0
173193  1  0  0  0  0
174194  1  0  0  0  0
130195  4  0  0  0  0
195196  4  0  0  0  0
196197  4  0  0  0  0
197198  2  0  0  0  0
198199  4  0  0  0  0
196200  4  0  0  0  0
199200  4  0  0  0  0
199201  4  0  0  0  0
201202  1  0  0  0  0
202203  4  0  0  0  0
203204  4  0  0  0  0
204205  4  0  0  0  0
205206  1  0  0  0  0
206207  2  0  0  0  0
206208  2  0  0  0  0
207208  1  0  0  0  0
205209  4  0  0  0  0
202210  4  0  0  0  0
209210  4  0  0  0  0
201211  4  0  0  0  0
211212  1  0  0  0  0
212213  2  0  0  0  0
211214  4  0  0  0  0
213215  1  0  0  0  0
214215  4  0  0  0  0
132216  4  0  0  0  0
215216  4  0  0  0  0
216217  4  0  0  0  0
217218  4  0  0  0  0
218219  2  0  0  0  0
219220  4  0  0  0  0
217221  4  0  0  0  0
220221  4  0  0  0  0
220222  4  0  0  0  0
222223  1  0  0  0  0
223224  4  0  0  0  0
224225  4  0  0  0  0
225226  4  0  0  0  0
226227  1  0  0  0  0
227228  2  0  0  0  0
227229  2  0  0  0  0
228229  1  0  0  0  0
226230  4  0  0  0  0
223231  4  0  0  0  0
230231  4  0  0  0  0
222232  4  0  0  0  0
232233  1  0  0  0  0
233234  2  0  0  0  0
195235  4  0  0  0  0
234235  1  0  0  0  0
232236  4  0  0  0  0
235236  4  0  0  0  0
197237  1  0  0  0  0
198238  1  0  0  0  0
200239  1  0  0  0  0
203240  1  0  0  0  0
204241  1  0  0  0  0
209242  1  0  0  0  0
210243  1  0  0  0  0
212244  1  0  0  0  0
213245  1  0  0  0  0
218246  1  0  0  0  0
219247  1  0  0  0  0
221248  1  0  0  0  0
224249  1  0  0  0  0
225250  1  0  0  0  0
230251  1  0  0  0  0
231252  1  0  0  0  0
233253  1  0  0  0  0
234254  1  0  0  0  0
M  END
