112

C 10.529934 -0.015967 -0.013926
C 11.257889 1.359640 0.082050
C 10.650135 2.594165 0.063600
C 11.672493 3.563198 0.235839
C 12.869704 2.885521 0.361785
N 12.610431 1.546201 0.212423
C 14.291262 3.522134 0.653761
C 14.328035 4.936650 1.086302
C 14.615410 5.948425 0.171648
C 14.626953 7.255909 0.625366
N 14.372901 7.620410 1.904251
C 14.098697 6.611899 2.765267
C 14.063281 5.274127 2.411992
C 15.422471 2.773654 0.554747
C 16.726811 3.310785 0.885454
C 17.629677 2.351388 0.719612
N 15.619327 1.470119 0.183551
C 16.951001 1.154820 0.262712
C 17.618924 -0.000000 -0.000000
C 16.839460 -1.278518 -0.524125
C 17.374011 -2.311547 -1.268791
C 16.348545 -3.269034 -1.469336
C 15.214340 -2.788804 -0.850023
N 15.508112 -1.552245 -0.325792
C 13.808436 -3.517626 -0.772670
C 13.783925 -4.988271 -0.916970
C 14.180543 -5.803350 0.140819
C 14.155255 -7.174860 -0.045097
N 13.770935 -7.781584 -1.193055
C 13.393000 -6.959608 -2.199982
C 13.383986 -5.578178 -2.115152
C 12.682027 -2.790151 -0.557357
C 11.362813 -3.389885 -0.458391
C 10.476385 -2.418593 -0.260837
C 11.195152 -1.169156 -0.213033
N 12.515226 -1.444442 -0.387235
H 9.453225 -0.030036 0.106035
H 9.591884 2.776039 -0.044222
H 11.543635 4.633840 0.287912
H 13.310685 0.808606 0.203652
H 14.827639 5.705396 -0.863932
H 14.849419 8.071983 -0.054233
H 13.899787 6.915833 3.787743
H 13.838783 4.501437 3.139349
H 16.940412 4.309414 1.222501
H 18.683294 2.466841 0.897298
H 18.392554 -2.378518 -1.619973
H 16.431087 -4.205201 -2.000722
H 14.828402 -0.920994 0.090409
H 14.497812 -5.365478 1.081081
H 14.455476 -7.843439 0.755096
H 13.085110 -7.456618 -3.114015
H 13.071358 -4.960885 -2.950609
H 11.134035 -4.438013 -0.527892
H 9.414325 -2.537437 -0.144889
C 27.856963 0.020572 -0.005066
C 27.129008 -1.246231 -0.549785
C 27.736762 -2.335211 -1.131606
C 26.714404 -3.275517 -1.422316
C 25.517193 -2.730781 -0.999977
N 25.776466 -1.471786 -0.519336
C 24.095635 -3.430424 -1.031998
C 24.058862 -4.885964 -1.295348
C 23.771487 -5.366463 -2.571828
C 23.759944 -6.736556 -2.767331
N 24.013996 -7.646315 -1.797411
C 24.288200 -7.144151 -0.570108
C 24.323616 -5.793137 -0.271443
C 22.964426 -2.719715 -0.777208
C 21.660086 -3.348663 -0.729235
C 20.757220 -2.419851 -0.437251
N 22.767570 -1.390929 -0.510155
C 21.435896 -1.146900 -0.295377
C 20.767973 0.000000 0.000000
C 21.547437 1.376590 0.119648
C 21.012886 2.635962 -0.069189
C 22.038352 3.578970 0.191072
C 23.172557 2.868421 0.521662
N 22.878785 1.529082 0.421325
C 24.578461 3.480878 0.924229
C 24.602972 4.854296 1.469518
C 24.206354 5.094387 2.783149
C 24.231642 6.398740 3.246039
N 24.615962 7.463858 2.503446
C 24.993897 7.194343 1.231870
C 25.002911 5.927468 0.674576
C 25.704870 2.735575 0.782444
C 27.024084 3.223381 1.145101
C 27.910512 2.269471 0.875859
C 27.191745 1.136890 0.346105
N 25.871671 1.461391 0.317331
H 28.933672 -0.021865 0.108017
H 28.795013 -2.447504 -1.310753
H 26.843262 -4.251114 -1.866387
H 25.076212 -0.812084 -0.189310
H 23.559258 -4.676121 -3.381096
H 23.537478 -7.150744 -3.745226
H 24.487110 -7.882633 0.199619
H 24.548114 -5.439389 0.729037
H 21.446485 -4.390762 -0.886996
H 19.703603 -2.603864 -0.332175
H 19.994343 2.856339 -0.350698
H 21.955810 4.654552 0.147467
H 23.558495 0.777309 0.502190
H 23.889085 4.274495 3.418446
H 23.931421 6.626580 4.263584
H 25.301787 8.054791 0.646974
H 25.315539 5.761371 -0.350826
H 27.252862 4.186945 1.563367
H 28.972572 2.322013 1.033363
C 18.582490 -0.000000 -0.000000
C 19.804407 -0.000000 -0.000000
