246

C 44.835797 -0.028360 0.092773
C 45.564016 1.347604 0.171525
C 44.956708 2.569264 0.349893
C 45.979328 3.552098 0.302821
C 47.176798 2.896342 0.087745
N 46.916053 1.549075 0.056380
C 48.599639 3.565144 -0.115205
C 48.639036 5.031119 -0.318935
C 48.943386 5.882428 0.750327
C 48.972318 7.266132 0.563300
C 48.695818 7.805957 -0.697354
C 48.726612 9.225712 -0.893243
N 48.750337 10.375196 -1.057530
C 48.389122 6.958549 -1.767827
C 48.360898 5.574577 -1.577140
C 49.729912 2.808659 -0.138688
C 51.033005 3.389554 -0.390775
C 51.936432 2.416935 -0.374616
N 49.928030 1.463163 0.029092
C 51.259992 1.164213 -0.100124
C 51.931357 -0.015439 -0.014802
C 51.158211 -1.363436 0.312121
C 51.711911 -2.514862 0.839326
C 50.684597 -3.488018 0.911937
C 49.530903 -2.901928 0.436375
N 49.816346 -1.593344 0.129902
C 48.117823 -3.604776 0.281857
C 48.085443 -5.080553 0.195115
C 47.743083 -5.851164 1.313398
C 47.721683 -7.244340 1.228043
C 48.046958 -7.875708 0.022401
C 48.023294 -9.306009 -0.067817
N 48.005100 -10.464999 -0.141536
C 48.393612 -7.109127 -1.096232
C 48.411960 -5.716091 -1.008040
C 46.990478 -2.852275 0.197500
C 45.667080 -3.430911 0.042011
C 44.779752 -2.440730 0.004599
C 45.502051 -1.197972 0.117806
N 46.824448 -1.495690 0.227273
H 43.756951 -0.026915 -0.008246
H 43.898748 2.735192 0.482944
H 45.851053 4.620216 0.391676
H 47.615453 0.816464 -0.034042
H 49.161903 5.448600 1.724903
H 49.212136 7.908149 1.406422
H 48.173392 7.358682 -2.754167
H 48.125507 4.905411 -2.401565
H 51.245936 4.427121 -0.576466
H 52.988957 2.559511 -0.538475
H 52.745022 -2.648942 1.122126
H 50.782862 -4.505570 1.254158
H 49.128442 -0.897741 -0.149648
H 47.488611 -5.347428 2.243711
H 47.450298 -7.823203 2.106574
H 48.651825 -7.580345 -2.041033
H 48.675578 -5.107719 -1.872379
H 45.435545 -4.477767 -0.030863
H 43.714464 -2.540627 -0.102623
C 92.609504 0.026845 0.084954
C 91.881284 -1.273134 0.542700
C 92.488592 -2.397216 1.053296
C 91.465973 -3.354468 1.280998
C 90.268503 -2.784226 0.892284
N 90.529247 -1.498656 0.488030
C 88.845662 -3.483082 0.883035
C 88.806264 -4.947975 1.094405
C 88.501915 -5.468880 2.358013
C 88.472982 -6.850099 2.562583
C 88.749483 -7.718764 1.501412
C 88.718689 -9.137077 1.707479
N 88.694964 -10.286974 1.868853
C 89.056179 -7.201943 0.237724
C 89.084403 -5.819450 0.036596
C 87.715388 -2.762870 0.650408
C 86.412296 -3.390920 0.569544
C 85.508869 -2.452067 0.314981
N 87.517271 -1.423701 0.437959
C 86.185309 -1.172390 0.230810
C 85.513943 -0.015439 -0.014802
C 86.287089 1.370325 -0.075061
C 85.733390 2.622865 0.111669
C 86.760704 3.577911 -0.088811
C 87.914397 2.882813 -0.382918
N 87.628955 1.540590 -0.313957
C 89.327478 3.515110 -0.726533
C 89.359858 4.908760 -1.219672
C 89.702218 5.959599 -0.359360
C 89.723617 7.274279 -0.828229
C 89.398343 7.546022 -2.161779
C 89.422007 8.895018 -2.645629
N 89.440201 9.987954 -3.038289
C 89.051688 6.498958 -3.023545
C 89.033340 5.185198 -2.551990
C 90.454823 2.768780 -0.598611
C 91.778221 3.281481 -0.908666
C 92.665549 2.319854 -0.669643
C 91.943250 1.157409 -0.215787
N 90.620853 1.473816 -0.193299
H 93.688350 -0.002594 -0.011691
H 93.546553 -2.519672 1.227191
H 91.594247 -4.355903 1.662964
H 89.829847 -0.819967 0.197726
H 88.283397 -4.781484 3.173790
H 88.233164 -7.232740 3.550827
H 89.271908 -7.860236 -0.598711
H 89.319794 -5.405536 -0.941225
H 86.199365 -4.439246 0.679278
H 84.456344 -2.634537 0.197158
H 84.700278 2.830203 0.346114
H 86.662438 4.650476 -0.042613
H 88.316859 0.794717 -0.389351
H 89.956690 5.734013 0.674246
H 89.995003 8.074336 -0.144995
H 88.793475 6.689281 -4.062041
H 88.769722 4.360734 -3.213396
H 92.009756 4.266929 -1.269374
H 93.730837 2.386048 -0.800388
C 55.045444 -0.003003 -0.012361
C 53.793174 -0.022184 -0.016709
C 56.359112 -0.003769 -0.010428
C 57.862246 -0.022184 -0.016709
C 67.985388 -0.003003 -0.012361
C 66.733117 -0.022184 -0.016709
C 69.299056 -0.003769 -0.010428
C 70.802189 -0.022184 -0.016709
C 80.925331 -0.003003 -0.012361
C 79.673061 -0.022184 -0.016709
C 82.238999 -0.003769 -0.010428
C 83.742133 -0.022184 -0.016709
C 58.673619 0.018000 0.016786
C 59.468853 1.169731 -0.724951
C 58.967687 2.390099 -1.129711
C 60.006249 3.065824 -1.820429
C 61.110027 2.238968 -1.810405
N 60.795623 1.123538 -1.075647
C 62.496857 2.512699 -2.521651
C 62.484724 3.358083 -3.736016
C 62.008062 2.839248 -4.945452
C 61.981442 3.635932 -6.092292
C 62.430666 4.960087 -6.033811
C 62.404589 5.779173 -7.209784
N 62.383300 6.445154 -8.161816
C 62.904772 5.484597 -4.825971
C 62.929137 4.685204 -3.681231
C 63.633233 1.940440 -2.045311
C 64.918654 2.111619 -2.690935
C 65.827735 1.431558 -2.000681
N 63.843072 1.129417 -0.965355
C 65.167248 0.791862 -0.880983
C 65.831573 0.018000 0.016786
C 65.036356 -0.655431 1.209754
C 65.537608 -0.988654 2.451523
C 64.499053 -1.638858 3.166321
C 63.395172 -1.676686 2.340410
N 63.709522 -1.007988 1.184154
C 62.008347 -2.370813 2.655102
C 62.020666 -3.534258 3.569311
C 62.498969 -4.771171 3.121635
C 62.525798 -5.870091 3.983191
C 62.075163 -5.735727 5.301323
C 62.101403 -6.862495 6.186873
N 62.122767 -7.774616 6.906522
C 61.599467 -4.500067 5.754793
C 61.574925 -3.403377 4.890645
C 60.871940 -1.928531 2.056177
C 59.586570 -2.563270 2.264434
C 58.677479 -1.913788 1.545351
C 59.337915 -0.833087 0.841729
N 60.662049 -0.897483 1.183832
H 57.962094 2.747211 -0.966536
H 59.948351 4.036508 -2.289129
H 61.453160 0.401097 -0.796797
H 61.660633 1.808115 -4.979516
H 61.608757 3.211440 -7.020788
H 63.258233 6.510240 -4.761517
H 63.297488 5.080568 -2.736129
H 65.114420 2.680730 -3.581775
H 66.871831 1.374082 -2.249117
H 66.543251 -0.805168 2.798445
H 64.556994 -2.050457 4.162571
H 63.051910 -0.771347 0.446907
H 62.847529 -4.864362 2.094542
H 62.899754 -6.821181 3.613350
H 61.244895 -4.376875 6.774667
H 61.205378 -2.437368 5.230465
H 59.390852 -3.419619 2.884245
H 57.633428 -2.165311 1.502247
C 71.613562 0.018000 0.016786
C 72.408796 1.169731 -0.724951
C 71.907631 2.390099 -1.129711
C 72.946192 3.065824 -1.820429
C 74.049971 2.238968 -1.810405
N 73.735567 1.123538 -1.075647
C 75.436800 2.512699 -2.521651
C 75.424668 3.358083 -3.736016
C 74.948006 2.839248 -4.945452
C 74.921385 3.635932 -6.092292
C 75.370609 4.960087 -6.033811
C 75.344532 5.779173 -7.209784
N 75.323244 6.445154 -8.161816
C 75.844715 5.484597 -4.825971
C 75.869081 4.685204 -3.681231
C 76.573177 1.940440 -2.045311
C 77.858597 2.111619 -2.690935
C 78.767678 1.431558 -2.000681
N 76.783015 1.129417 -0.965355
C 78.107191 0.791862 -0.880983
C 78.771517 0.018000 0.016786
C 77.976300 -0.655431 1.209754
C 78.477552 -0.988654 2.451523
C 77.438996 -1.638858 3.166321
C 76.335115 -1.676686 2.340410
N 76.649466 -1.007988 1.184154
C 74.948290 -2.370813 2.655102
C 74.960609 -3.534258 3.569311
C 75.438913 -4.771171 3.121635
C 75.465742 -5.870091 3.983191
C 75.015106 -5.735727 5.301323
C 75.041346 -6.862495 6.186873
N 75.062710 -7.774616 6.906522
C 74.539411 -4.500067 5.754793
C 74.514868 -3.403377 4.890645
C 73.811884 -1.928531 2.056177
C 72.526513 -2.563270 2.264434
C 71.617423 -1.913788 1.545351
C 72.277859 -0.833087 0.841729
N 73.601992 -0.897483 1.183832
H 70.902037 2.747211 -0.966536
H 72.888295 4.036508 -2.289129
H 74.393103 0.401097 -0.796797
H 74.600576 1.808115 -4.979516
H 74.548700 3.211440 -7.020788
H 76.198176 6.510240 -4.761517
H 76.237431 5.080568 -2.736129
H 78.054363 2.680730 -3.581775
H 79.811775 1.374082 -2.249117
H 79.483194 -0.805168 2.798445
H 77.496937 -2.050457 4.162571
H 75.991853 -0.771347 0.446907
H 75.787472 -4.864362 2.094542
H 75.839698 -6.821181 3.613350
H 74.184838 -4.376875 6.774667
H 74.145322 -2.437368 5.230465
H 72.330795 -3.419619 2.884245
H 70.573371 -2.165311 1.502247
