 xtb: 6.5.1 (b24c23e)
          07302206443D

138157  0     0  0            999 V2000
   16.7566    0.0337    0.0090 Cu  0  0  0  0  0  0  0  0  0  0  0  0
   13.3564    0.1505   -0.1600 C   0  0  0  0  0  0  0  0  0  0  0  0
   14.0031    1.3190    0.2144 C   0  0  0  0  0  0  0  0  0  0  0  0
   13.3410    2.5450    0.5578 C   0  0  0  0  0  0  0  0  0  0  0  0
   14.3072    3.4348    0.8954 C   0  0  0  0  0  0  0  0  0  0  0  0
   15.5701    2.7625    0.7531 C   0  0  0  0  0  0  0  0  0  0  0  0
   15.3535    1.4788    0.3410 N   0  0  0  0  0  0  0  0  0  0  0  0
   16.8165    3.3285    1.0287 C   0  0  0  0  0  0  0  0  0  0  0  0
   18.0398    2.6644    0.9225 C   0  0  0  0  0  0  0  0  0  0  0  0
   19.3225    3.2654    1.1560 C   0  0  0  0  0  0  0  0  0  0  0  0
   20.2588    2.3154    0.9064 C   0  0  0  0  0  0  0  0  0  0  0  0
   18.2160    1.3630    0.5340 N   0  0  0  0  0  0  0  0  0  0  0  0
   19.5574    1.1293    0.5148 C   0  0  0  0  0  0  0  0  0  0  0  0
   20.1808   -0.0676    0.1264 C   0  0  0  0  0  0  0  0  0  0  0  0
   19.5151   -1.2327   -0.2872 C   0  0  0  0  0  0  0  0  0  0  0  0
   20.1713   -2.4434   -0.6813 C   0  0  0  0  0  0  0  0  0  0  0  0
   19.1989   -3.3406   -0.9839 C   0  0  0  0  0  0  0  0  0  0  0  0
   17.9396   -2.6846   -0.7721 C   0  0  0  0  0  0  0  0  0  0  0  0
   16.6895   -3.2703   -0.9813 C   0  0  0  0  0  0  0  0  0  0  0  0
   16.6645   -4.6986   -1.3884 C   0  0  0  0  0  0  0  0  0  0  0  0
   16.1500   -5.0709   -2.6280 C   0  0  0  0  0  0  0  0  0  0  0  0
   16.1309   -6.4087   -3.0128 C   0  0  0  0  0  0  0  0  0  0  0  0
   15.5631   -6.7974   -4.3514 C   0  0  0  0  0  0  0  0  0  0  0  0
   16.6256   -7.3748   -2.1442 C   0  0  0  0  0  0  0  0  0  0  0  0
   17.1409   -7.0185   -0.9000 C   0  0  0  0  0  0  0  0  0  0  0  0
   17.6859   -8.0768    0.0210 C   0  0  0  0  0  0  0  0  0  0  0  0
   17.1604   -5.6796   -0.5292 C   0  0  0  0  0  0  0  0  0  0  0  0
   15.4641   -2.6162   -0.8388 C   0  0  0  0  0  0  0  0  0  0  0  0
   14.1747   -3.2224   -1.0318 C   0  0  0  0  0  0  0  0  0  0  0  0
   13.2445   -2.2606   -0.8107 C   0  0  0  0  0  0  0  0  0  0  0  0
   13.9554   -1.0619   -0.4684 C   0  0  0  0  0  0  0  0  0  0  0  0
   15.2986   -1.3075   -0.4857 N   0  0  0  0  0  0  0  0  0  0  0  0
   18.1655   -1.3989   -0.3585 N   0  0  0  0  0  0  0  0  0  0  0  0
   16.8439    4.7512    1.4553 C   0  0  0  0  0  0  0  0  0  0  0  0
   16.4126    5.7509    0.5845 C   0  0  0  0  0  0  0  0  0  0  0  0
   16.4393    7.0859    0.9725 C   0  0  0  0  0  0  0  0  0  0  0  0
   16.0006    8.1644    0.0189 C   0  0  0  0  0  0  0  0  0  0  0  0
   16.8976    7.4172    2.2443 C   0  0  0  0  0  0  0  0  0  0  0  0
   17.3295    6.4307    3.1255 C   0  0  0  0  0  0  0  0  0  0  0  0
   17.7994    6.7989    4.5071 C   0  0  0  0  0  0  0  0  0  0  0  0
   17.3025    5.0989    2.7247 C   0  0  0  0  0  0  0  0  0  0  0  0
   12.2726    0.1849   -0.2037 H   0  0  0  0  0  0  0  0  0  0  0  0
   12.2722    2.6903    0.5449 H   0  0  0  0  0  0  0  0  0  0  0  0
   14.1831    4.4542    1.2240 H   0  0  0  0  0  0  0  0  0  0  0  0
   19.4826    4.2881    1.4569 H   0  0  0  0  0  0  0  0  0  0  0  0
   21.3315    2.4048    0.9693 H   0  0  0  0  0  0  0  0  0  0  0  0
   21.2400   -2.5815   -0.7188 H   0  0  0  0  0  0  0  0  0  0  0  0
   19.3190   -4.3539   -1.3319 H   0  0  0  0  0  0  0  0  0  0  0  0
   15.7782   -4.3079   -3.3032 H   0  0  0  0  0  0  0  0  0  0  0  0
   15.8753   -7.8036   -4.6310 H   0  0  0  0  0  0  0  0  0  0  0  0
   14.4717   -6.7747   -4.3138 H   0  0  0  0  0  0  0  0  0  0  0  0
   15.8878   -6.0999   -5.1244 H   0  0  0  0  0  0  0  0  0  0  0  0
   16.6117   -8.4195   -2.4377 H   0  0  0  0  0  0  0  0  0  0  0  0
   17.8095   -7.6889    1.0319 H   0  0  0  0  0  0  0  0  0  0  0  0
   17.0190   -8.9393    0.0535 H   0  0  0  0  0  0  0  0  0  0  0  0
   18.6597   -8.4174   -0.3378 H   0  0  0  0  0  0  0  0  0  0  0  0
   17.5493   -5.3896    0.4409 H   0  0  0  0  0  0  0  0  0  0  0  0
   14.0100   -4.2551   -1.2941 H   0  0  0  0  0  0  0  0  0  0  0  0
   12.1702   -2.3435   -0.8640 H   0  0  0  0  0  0  0  0  0  0  0  0
   16.0695    5.4809   -0.4084 H   0  0  0  0  0  0  0  0  0  0  0  0
   15.5307    8.9889    0.5557 H   0  0  0  0  0  0  0  0  0  0  0  0
   15.2956    7.7725   -0.7144 H   0  0  0  0  0  0  0  0  0  0  0  0
   16.8662    8.5593   -0.5180 H   0  0  0  0  0  0  0  0  0  0  0  0
   16.9187    8.4577    2.5520 H   0  0  0  0  0  0  0  0  0  0  0  0
   16.9503    6.8206    5.1941 H   0  0  0  0  0  0  0  0  0  0  0  0
   18.2620    7.7862    4.5093 H   0  0  0  0  0  0  0  0  0  0  0  0
   18.5193    6.0703    4.8802 H   0  0  0  0  0  0  0  0  0  0  0  0
   17.6261    4.3202    3.4067 H   0  0  0  0  0  0  0  0  0  0  0  0
   27.6436   -0.0180   -0.0299 Cu  0  0  0  0  0  0  0  0  0  0  0  0
   31.0439    0.1116   -0.1890 C   0  0  0  0  0  0  0  0  0  0  0  0
   30.3972   -0.5731   -1.2071 C   0  0  0  0  0  0  0  0  0  0  0  0
   31.0593   -1.2441   -2.2892 C   0  0  0  0  0  0  0  0  0  0  0  0
   30.0931   -1.8161   -3.0499 C   0  0  0  0  0  0  0  0  0  0  0  0
   28.8302   -1.4923   -2.4437 C   0  0  0  0  0  0  0  0  0  0  0  0
   29.0468   -0.7391   -1.3255 N   0  0  0  0  0  0  0  0  0  0  0  0
   27.5838   -1.9145   -2.9106 C   0  0  0  0  0  0  0  0  0  0  0  0
   26.3605   -1.6277   -2.3023 C   0  0  0  0  0  0  0  0  0  0  0  0
   25.0777   -2.0193   -2.8145 C   0  0  0  0  0  0  0  0  0  0  0  0
   24.1415   -1.5150   -1.9716 C   0  0  0  0  0  0  0  0  0  0  0  0
   26.1843   -0.8923   -1.1605 N   0  0  0  0  0  0  0  0  0  0  0  0
   24.8429   -0.8089   -0.9413 C   0  0  0  0  0  0  0  0  0  0  0  0
   24.2195   -0.1027    0.1002 C   0  0  0  0  0  0  0  0  0  0  0  0
   24.8852    0.6189    1.1040 C   0  0  0  0  0  0  0  0  0  0  0  0
   24.2291    1.3346    2.1572 C   0  0  0  0  0  0  0  0  0  0  0  0
   25.2014    1.8750    2.9347 C   0  0  0  0  0  0  0  0  0  0  0  0
   26.4607    1.4888    2.3636 C   0  0  0  0  0  0  0  0  0  0  0  0
   27.7108    1.8528    2.8680 C   0  0  0  0  0  0  0  0  0  0  0  0
   27.7358    2.6414    4.1264 C   0  0  0  0  0  0  0  0  0  0  0  0
   28.2504    3.9357    4.1390 C   0  0  0  0  0  0  0  0  0  0  0  0
   28.2695    4.6777    5.3167 C   0  0  0  0  0  0  0  0  0  0  0  0
   28.8373    6.0715    5.3175 C   0  0  0  0  0  0  0  0  0  0  0  0
   27.7747    4.1123    6.4865 C   0  0  0  0  0  0  0  0  0  0  0  0
   27.2594    2.8181    6.4906 C   0  0  0  0  0  0  0  0  0  0  0  0
   26.7144    2.2282    7.7634 C   0  0  0  0  0  0  0  0  0  0  0  0
   27.2399    2.0893    5.3078 C   0  0  0  0  0  0  0  0  0  0  0  0
   28.9362    1.5339    2.2793 C   0  0  0  0  0  0  0  0  0  0  0  0
   30.2256    1.8880    2.8078 C   0  0  0  0  0  0  0  0  0  0  0  0
   31.1558    1.4079    1.9456 C   0  0  0  0  0  0  0  0  0  0  0  0
   30.4449    0.7454    0.8895 C   0  0  0  0  0  0  0  0  0  0  0  0
   29.1017    0.8304    1.1206 N   0  0  0  0  0  0  0  0  0  0  0  0
   26.2348    0.7338    1.2438 N   0  0  0  0  0  0  0  0  0  0  0  0
   27.5564   -2.7203   -4.1583 C   0  0  0  0  0  0  0  0  0  0  0  0
   27.9877   -2.1622   -5.3609 C   0  0  0  0  0  0  0  0  0  0  0  0
   27.9609   -2.9065   -6.5351 C   0  0  0  0  0  0  0  0  0  0  0  0
   28.3997   -2.2908   -7.8364 C   0  0  0  0  0  0  0  0  0  0  0  0
   27.5027   -4.2203   -6.4993 C   0  0  0  0  0  0  0  0  0  0  0  0
   27.0708   -4.7921   -5.3064 C   0  0  0  0  0  0  0  0  0  0  0  0
   26.6009   -6.2215   -5.2756 C   0  0  0  0  0  0  0  0  0  0  0  0
   27.0978   -4.0363   -4.1389 C   0  0  0  0  0  0  0  0  0  0  0  0
   32.1277    0.1441   -0.2342 H   0  0  0  0  0  0  0  0  0  0  0  0
   32.1281   -1.2722   -2.4324 H   0  0  0  0  0  0  0  0  0  0  0  0
   30.2172   -2.4155   -3.9375 H   0  0  0  0  0  0  0  0  0  0  0  0
   24.9177   -2.5930   -3.7131 H   0  0  0  0  0  0  0  0  0  0  0  0
   23.0688   -1.6004   -2.0399 H   0  0  0  0  0  0  0  0  0  0  0  0
   23.1603    1.4090    2.2794 H   0  0  0  0  0  0  0  0  0  0  0  0
   25.0813    2.4912    3.8111 H   0  0  0  0  0  0  0  0  0  0  0  0
   28.6221    4.3717    3.2181 H   0  0  0  0  0  0  0  0  0  0  0  0
   28.5251    6.6202    6.2060 H   0  0  0  0  0  0  0  0  0  0  0  0
   29.9286    6.0291    5.3061 H   0  0  0  0  0  0  0  0  0  0  0  0
   28.5125    6.6198    4.4323 H   0  0  0  0  0  0  0  0  0  0  0  0
   27.7886    4.6850    7.4082 H   0  0  0  0  0  0  0  0  0  0  0  0
   26.5907    1.1492    7.6723 H   0  0  0  0  0  0  0  0  0  0  0  0
   27.3813    2.4370    8.6009 H   0  0  0  0  0  0  0  0  0  0  0  0
   25.7406    2.6676    7.9906 H   0  0  0  0  0  0  0  0  0  0  0  0
   26.8510    1.0769    5.2994 H   0  0  0  0  0  0  0  0  0  0  0  0
   30.3903    2.4273    3.7268 H   0  0  0  0  0  0  0  0  0  0  0  0
   32.2301    1.4822    2.0103 H   0  0  0  0  0  0  0  0  0  0  0  0
   28.3308   -1.1334   -5.3779 H   0  0  0  0  0  0  0  0  0  0  0  0
   28.8696   -3.0359   -8.4790 H   0  0  0  0  0  0  0  0  0  0  0  0
   29.1047   -1.4774   -7.6642 H   0  0  0  0  0  0  0  0  0  0  0  0
   27.5340   -1.8851   -8.3652 H   0  0  0  0  0  0  0  0  0  0  0  0
   27.4816   -4.8055   -7.4130 H   0  0  0  0  0  0  0  0  0  0  0  0
   27.4500   -6.8874   -5.1051 H   0  0  0  0  0  0  0  0  0  0  0  0
   26.1383   -6.4985   -6.2232 H   0  0  0  0  0  0  0  0  0  0  0  0
   25.8810   -6.3770   -4.4719 H   0  0  0  0  0  0  0  0  0  0  0  0
   26.7742   -4.4746   -3.2011 H   0  0  0  0  0  0  0  0  0  0  0  0
   21.5924   -0.0931    0.1349 C   0  0  0  0  0  0  0  0  0  0  0  0
   22.8079   -0.1037    0.1270 C   0  0  0  0  0  0  0  0  0  0  0  0
  2  3  4  0  0  0  0
  3  4  1  0  0  0  0
  4  5  2  0  0  0  0
  5  6  4  0  0  0  0
  1  7  1  0  0  0  0
  3  7  4  0  0  0  0
  6  7  4  0  0  0  0
  6  8  4  0  0  0  0
  8  9  4  0  0  0  0
  9 10  4  0  0  0  0
 10 11  2  0  0  0  0
  1 12  1  0  0  0  0
  9 12  4  0  0  0  0
 11 13  4  0  0  0  0
 12 13  4  0  0  0  0
 13 14  4  0  0  0  0
 14 15  4  0  0  0  0
 15 16  4  0  0  0  0
 16 17  2  0  0  0  0
 17 18  4  0  0  0  0
 18 19  4  0  0  0  0
 19 20  1  0  0  0  0
 20 21  4  0  0  0  0
 21 22  4  0  0  0  0
 22 23  1  0  0  0  0
 22 24  4  0  0  0  0
 24 25  4  0  0  0  0
 25 26  1  0  0  0  0
 20 27  4  0  0  0  0
 25 27  4  0  0  0  0
 19 28  4  0  0  0  0
 28 29  4  0  0  0  0
 29 30  2  0  0  0  0
  2 31  4  0  0  0  0
 30 31  1  0  0  0  0
  1 32  1  0  0  0  0
 28 32  4  0  0  0  0
 31 32  4  0  0  0  0
  1 33  1  0  0  0  0
 15 33  4  0  0  0  0
 18 33  4  0  0  0  0
  8 34  1  0  0  0  0
 34 35  4  0  0  0  0
 35 36  4  0  0  0  0
 36 37  1  0  0  0  0
 36 38  4  0  0  0  0
 38 39  4  0  0  0  0
 39 40  1  0  0  0  0
 34 41  4  0  0  0  0
 39 41  4  0  0  0  0
  2 42  1  0  0  0  0
  4 43  1  0  0  0  0
  5 44  1  0  0  0  0
 10 45  1  0  0  0  0
 11 46  1  0  0  0  0
 16 47  1  0  0  0  0
 17 48  1  0  0  0  0
 21 49  1  0  0  0  0
 23 50  1  0  0  0  0
 23 51  1  0  0  0  0
 23 52  1  0  0  0  0
 24 53  1  0  0  0  0
 26 54  1  0  0  0  0
 26 55  1  0  0  0  0
 26 56  1  0  0  0  0
 27 57  1  0  0  0  0
 29 58  1  0  0  0  0
 30 59  1  0  0  0  0
 35 60  1  0  0  0  0
 37 61  1  0  0  0  0
 37 62  1  0  0  0  0
 37 63  1  0  0  0  0
 38 64  1  0  0  0  0
 40 65  1  0  0  0  0
 40 66  1  0  0  0  0
 40 67  1  0  0  0  0
 41 68  1  0  0  0  0
 70 71  4  0  0  0  0
 71 72  1  0  0  0  0
 72 73  2  0  0  0  0
 73 74  4  0  0  0  0
 69 75  1  0  0  0  0
 71 75  4  0  0  0  0
 74 75  4  0  0  0  0
 74 76  4  0  0  0  0
 76 77  4  0  0  0  0
 77 78  4  0  0  0  0
 78 79  2  0  0  0  0
 69 80  1  0  0  0  0
 77 80  4  0  0  0  0
 79 81  4  0  0  0  0
 80 81  4  0  0  0  0
 81 82  4  0  0  0  0
 82 83  4  0  0  0  0
 83 84  4  0  0  0  0
 84 85  2  0  0  0  0
 85 86  4  0  0  0  0
 86 87  4  0  0  0  0
 87 88  1  0  0  0  0
 88 89  4  0  0  0  0
 89 90  4  0  0  0  0
 90 91  1  0  0  0  0
 90 92  4  0  0  0  0
 92 93  4  0  0  0  0
 93 94  1  0  0  0  0
 88 95  4  0  0  0  0
 93 95  4  0  0  0  0
 87 96  4  0  0  0  0
 96 97  4  0  0  0  0
 97 98  2  0  0  0  0
 70 99  4  0  0  0  0
 98 99  1  0  0  0  0
 69100  1  0  0  0  0
 96100  4  0  0  0  0
 99100  4  0  0  0  0
 69101  1  0  0  0  0
 83101  4  0  0  0  0
 86101  4  0  0  0  0
 76102  1  0  0  0  0
102103  4  0  0  0  0
103104  4  0  0  0  0
104105  1  0  0  0  0
104106  4  0  0  0  0
106107  4  0  0  0  0
107108  1  0  0  0  0
102109  4  0  0  0  0
107109  4  0  0  0  0
 70110  1  0  0  0  0
 72111  1  0  0  0  0
 73112  1  0  0  0  0
 78113  1  0  0  0  0
 79114  1  0  0  0  0
 84115  1  0  0  0  0
 85116  1  0  0  0  0
 89117  1  0  0  0  0
 91118  1  0  0  0  0
 91119  1  0  0  0  0
 91120  1  0  0  0  0
 92121  1  0  0  0  0
 94122  1  0  0  0  0
 94123  1  0  0  0  0
 94124  1  0  0  0  0
 95125  1  0  0  0  0
 97126  1  0  0  0  0
 98127  1  0  0  0  0
103128  1  0  0  0  0
105129  1  0  0  0  0
105130  1  0  0  0  0
105131  1  0  0  0  0
106132  1  0  0  0  0
108133  1  0  0  0  0
108134  1  0  0  0  0
108135  1  0  0  0  0
109136  1  0  0  0  0
 14137  4  0  0  0  0
 82138  4  0  0  0  0
137138  3  0  0  0  0
M  END
