 xtb: 6.5.1 (b24c23e)
          07292222583D

402443  0     0  0            999 V2000
   62.7585   -0.0956    0.0554 C   0  0  0  0  0  0  0  0  0  0  0  0
   63.3738   -0.9704    0.9419 C   0  0  0  0  0  0  0  0  0  0  0  0
   62.7286   -1.8942    1.8104 C   0  0  0  0  0  0  0  0  0  0  0  0
   63.6947   -2.5473    2.5235 C   0  0  0  0  0  0  0  0  0  0  0  0
   64.9609   -2.0351    2.1217 C   0  0  0  0  0  0  0  0  0  0  0  0
   64.7170   -1.0972    1.1587 N   0  0  0  0  0  0  0  0  0  0  0  0
   66.2258   -2.4088    2.5933 C   0  0  0  0  0  0  0  0  0  0  0  0
   66.2622   -3.4182    3.6773 C   0  0  0  0  0  0  0  0  0  0  0  0
   66.9377   -4.6287    3.5016 C   0  0  0  0  0  0  0  0  0  0  0  0
   66.9689   -5.5768    4.5085 C   0  0  0  0  0  0  0  0  0  0  0  0
   66.3334   -5.3267    5.7276 C   0  0  0  0  0  0  0  0  0  0  0  0
   66.3290   -6.2884    6.7226 N   0  0  0  0  0  0  0  0  0  0  0  0
   65.6518   -4.1207    5.9100 C   0  0  0  0  0  0  0  0  0  0  0  0
   65.6175   -3.1819    4.8942 C   0  0  0  0  0  0  0  0  0  0  0  0
   67.4359   -1.8987    2.1159 C   0  0  0  0  0  0  0  0  0  0  0  0
   68.7342   -2.2453    2.6650 C   0  0  0  0  0  0  0  0  0  0  0  0
   69.6496   -1.5684    1.9405 C   0  0  0  0  0  0  0  0  0  0  0  0
   67.5841   -1.0083    1.0956 N   0  0  0  0  0  0  0  0  0  0  0  0
   68.9089   -0.8006    0.9590 C   0  0  0  0  0  0  0  0  0  0  0  0
   69.5409    0.0257    0.0062 C   0  0  0  0  0  0  0  0  0  0  0  0
   68.8995    0.8477   -0.9407 C   0  0  0  0  0  0  0  0  0  0  0  0
   69.5385    1.6556   -1.9177 C   0  0  0  0  0  0  0  0  0  0  0  0
   68.5679    2.3138   -2.6215 C   0  0  0  0  0  0  0  0  0  0  0  0
   67.3051    1.9344   -2.0886 C   0  0  0  0  0  0  0  0  0  0  0  0
   67.5577    1.0383   -1.0827 N   0  0  0  0  0  0  0  0  0  0  0  0
   66.0412    2.3649   -2.5083 C   0  0  0  0  0  0  0  0  0  0  0  0
   66.0008    3.3807   -3.5851 C   0  0  0  0  0  0  0  0  0  0  0  0
   65.3333    3.1211   -4.7851 C   0  0  0  0  0  0  0  0  0  0  0  0
   65.2915    4.0673   -5.7934 C   0  0  0  0  0  0  0  0  0  0  0  0
   65.9077    5.3089   -5.6164 C   0  0  0  0  0  0  0  0  0  0  0  0
   65.8995    6.2438   -6.6365 N   0  0  0  0  0  0  0  0  0  0  0  0
   66.5825    5.5746   -4.4220 C   0  0  0  0  0  0  0  0  0  0  0  0
   66.6278    4.6190   -3.4226 C   0  0  0  0  0  0  0  0  0  0  0  0
   64.8286    1.9029   -1.9823 C   0  0  0  0  0  0  0  0  0  0  0  0
   63.5212    2.3998   -2.3812 C   0  0  0  0  0  0  0  0  0  0  0  0
   62.6129    1.7040   -1.6673 C   0  0  0  0  0  0  0  0  0  0  0  0
   63.3644    0.7940   -0.8220 C   0  0  0  0  0  0  0  0  0  0  0  0
   64.6953    0.9494   -1.0304 N   0  0  0  0  0  0  0  0  0  0  0  0
   61.6732   -0.1144    0.0576 H   0  0  0  0  0  0  0  0  0  0  0  0
   61.6611   -2.0366    1.8676 H   0  0  0  0  0  0  0  0  0  0  0  0
   63.5483   -3.3240    3.2565 H   0  0  0  0  0  0  0  0  0  0  0  0
   65.4391   -0.5761    0.6727 H   0  0  0  0  0  0  0  0  0  0  0  0
   67.4250   -4.8347    2.5549 H   0  0  0  0  0  0  0  0  0  0  0  0
   67.4873   -6.5171    4.3557 H   0  0  0  0  0  0  0  0  0  0  0  0
   66.1558   -5.9396    7.6518 H   0  0  0  0  0  0  0  0  0  0  0  0
   67.0811   -6.9569    6.6724 H   0  0  0  0  0  0  0  0  0  0  0  0
   65.1539   -3.9217    6.8528 H   0  0  0  0  0  0  0  0  0  0  0  0
   65.1037   -2.2398    5.0522 H   0  0  0  0  0  0  0  0  0  0  0  0
   68.9011   -2.9040    3.5018 H   0  0  0  0  0  0  0  0  0  0  0  0
   70.7226   -1.5641    2.0473 H   0  0  0  0  0  0  0  0  0  0  0  0
   70.6055    1.7144   -2.0607 H   0  0  0  0  0  0  0  0  0  0  0  0
   68.7112    2.9928   -3.4461 H   0  0  0  0  0  0  0  0  0  0  0  0
   66.8383    0.5793   -0.5338 H   0  0  0  0  0  0  0  0  0  0  0  0
   64.8613    2.1563   -4.9347 H   0  0  0  0  0  0  0  0  0  0  0  0
   64.7794    3.8493   -6.7243 H   0  0  0  0  0  0  0  0  0  0  0  0
   65.1506    6.1417   -7.3026 H   0  0  0  0  0  0  0  0  0  0  0  0
   66.0586    7.1949   -6.3448 H   0  0  0  0  0  0  0  0  0  0  0  0
   67.0658    6.5351   -4.2798 H   0  0  0  0  0  0  0  0  0  0  0  0
   67.1353    4.8421   -2.4904 H   0  0  0  0  0  0  0  0  0  0  0  0
   63.3460    3.1853   -3.0987 H   0  0  0  0  0  0  0  0  0  0  0  0
   61.5371    1.7849   -1.6811 H   0  0  0  0  0  0  0  0  0  0  0  0
  162.4667    0.0465   -0.1183 C   0  0  0  0  0  0  0  0  0  0  0  0
  161.8476    0.7019   -1.1751 C   0  0  0  0  0  0  0  0  0  0  0  0
  162.4895    1.3428   -2.2712 C   0  0  0  0  0  0  0  0  0  0  0  0
  161.5200    1.8769   -3.0733 C   0  0  0  0  0  0  0  0  0  0  0  0
  160.2550    1.5883   -2.4874 C   0  0  0  0  0  0  0  0  0  0  0  0
  160.5031    0.8688   -1.3529 N   0  0  0  0  0  0  0  0  0  0  0  0
  158.9877    1.9448   -2.9657 C   0  0  0  0  0  0  0  0  0  0  0  0
  158.9471    2.7705   -4.1954 C   0  0  0  0  0  0  0  0  0  0  0  0
  158.2860    2.3158   -5.3393 C   0  0  0  0  0  0  0  0  0  0  0  0
  158.2501    3.0826   -6.4901 C   0  0  0  0  0  0  0  0  0  0  0  0
  158.8662    4.3365   -6.5174 C   0  0  0  0  0  0  0  0  0  0  0  0
  158.8655    5.0896   -7.6784 N   0  0  0  0  0  0  0  0  0  0  0  0
  159.5340    4.7965   -5.3795 C   0  0  0  0  0  0  0  0  0  0  0  0
  159.5732    4.0190   -4.2357 C   0  0  0  0  0  0  0  0  0  0  0  0
  157.7792    1.5805   -2.3665 C   0  0  0  0  0  0  0  0  0  0  0  0
  156.4770    2.0134   -2.8398 C   0  0  0  0  0  0  0  0  0  0  0  0
  155.5651    1.4542   -2.0172 C   0  0  0  0  0  0  0  0  0  0  0  0
  157.6363    0.7951   -1.2625 N   0  0  0  0  0  0  0  0  0  0  0  0
  156.3117    0.6926   -1.0352 C   0  0  0  0  0  0  0  0  0  0  0  0
  155.6845   -0.0393   -0.0051 C   0  0  0  0  0  0  0  0  0  0  0  0
  156.3303   -0.7519    1.0239 C   0  0  0  0  0  0  0  0  0  0  0  0
  155.6960   -1.5114    2.0420 C   0  0  0  0  0  0  0  0  0  0  0  0
  156.6698   -2.0307    2.8498 C   0  0  0  0  0  0  0  0  0  0  0  0
  157.9300   -1.5957    2.3543 C   0  0  0  0  0  0  0  0  0  0  0  0
  157.6726   -0.8344    1.2439 N   0  0  0  0  0  0  0  0  0  0  0  0
  159.1957   -1.8943    2.8714 C   0  0  0  0  0  0  0  0  0  0  0  0
  159.2413   -2.7009    4.1126 C   0  0  0  0  0  0  0  0  0  0  0  0
  159.9143   -3.9253    4.1424 C   0  0  0  0  0  0  0  0  0  0  0  0
  159.9610   -4.6819    5.2995 C   0  0  0  0  0  0  0  0  0  0  0  0
  159.3444   -4.2197    6.4652 C   0  0  0  0  0  0  0  0  0  0  0  0
  159.3574   -4.9906    7.6143 N   0  0  0  0  0  0  0  0  0  0  0  0
  158.6642   -2.9994    6.4427 C   0  0  0  0  0  0  0  0  0  0  0  0
  158.6140   -2.2537    5.2784 C   0  0  0  0  0  0  0  0  0  0  0  0
  160.4059   -1.4852    2.2980 C   0  0  0  0  0  0  0  0  0  0  0  0
  161.7149   -1.7487    2.8745 C   0  0  0  0  0  0  0  0  0  0  0  0
  162.6200   -1.2111    2.0315 C   0  0  0  0  0  0  0  0  0  0  0  0
  161.8647   -0.6062    0.9493 C   0  0  0  0  0  0  0  0  0  0  0  0
  160.5349   -0.7818    1.1485 N   0  0  0  0  0  0  0  0  0  0  0  0
  163.5520    0.0541   -0.1351 H   0  0  0  0  0  0  0  0  0  0  0  0
  163.5571    1.3779   -2.4192 H   0  0  0  0  0  0  0  0  0  0  0  0
  161.6635    2.4145   -3.9966 H   0  0  0  0  0  0  0  0  0  0  0  0
  159.7828    0.5074   -0.7365 H   0  0  0  0  0  0  0  0  0  0  0  0
  157.8138    1.3396   -5.3296 H   0  0  0  0  0  0  0  0  0  0  0  0
  157.7428    2.7139   -7.3750 H   0  0  0  0  0  0  0  0  0  0  0  0
  159.0225    6.0760   -7.5465 H   0  0  0  0  0  0  0  0  0  0  0  0
  158.1201    4.8787   -8.3226 H   0  0  0  0  0  0  0  0  0  0  0  0
  160.0171    5.7674   -5.3952 H   0  0  0  0  0  0  0  0  0  0  0  0
  160.0759    4.3930   -3.3504 H   0  0  0  0  0  0  0  0  0  0  0  0
  156.3049    2.6694   -3.6777 H   0  0  0  0  0  0  0  0  0  0  0  0
  154.4908    1.5431   -2.0443 H   0  0  0  0  0  0  0  0  0  0  0  0
  154.6299   -1.6436    2.1326 H   0  0  0  0  0  0  0  0  0  0  0  0
  156.5305   -2.6699    3.7063 H   0  0  0  0  0  0  0  0  0  0  0  0
  158.3894   -0.4065    0.6672 H   0  0  0  0  0  0  0  0  0  0  0  0
  160.3868   -4.2961    3.2394 H   0  0  0  0  0  0  0  0  0  0  0  0
  160.4773   -5.6356    5.3066 H   0  0  0  0  0  0  0  0  0  0  0  0
  160.1091   -5.6590    7.6711 H   0  0  0  0  0  0  0  0  0  0  0  0
  159.1974   -4.4836    8.4700 H   0  0  0  0  0  0  0  0  0  0  0  0
  158.1805   -2.6368    7.3432 H   0  0  0  0  0  0  0  0  0  0  0  0
  158.1022   -1.2974    5.2760 H   0  0  0  0  0  0  0  0  0  0  0  0
  161.8933   -2.2620    3.8058 H   0  0  0  0  0  0  0  0  0  0  0  0
  163.6957   -1.1987    2.1136 H   0  0  0  0  0  0  0  0  0  0  0  0
   70.9457    0.0413   -0.0078 C   0  0  0  0  0  0  0  0  0  0  0  0
   72.1708    0.0502   -0.0206 C   0  0  0  0  0  0  0  0  0  0  0  0
   73.5130    0.0565   -0.0269 C   0  0  0  0  0  0  0  0  0  0  0  0
   74.7443    0.0602   -0.0296 C   0  0  0  0  0  0  0  0  0  0  0  0
   76.0817    0.0643   -0.0306 C   0  0  0  0  0  0  0  0  0  0  0  0
   77.3130    0.0657   -0.0301 C   0  0  0  0  0  0  0  0  0  0  0  0
   78.6550    0.0662   -0.0266 C   0  0  0  0  0  0  0  0  0  0  0  0
   79.8804    0.0684   -0.0233 C   0  0  0  0  0  0  0  0  0  0  0  0
   89.5455   -0.0418   -0.0176 C   0  0  0  0  0  0  0  0  0  0  0  0
   90.7709   -0.0596   -0.0205 C   0  0  0  0  0  0  0  0  0  0  0  0
   92.1124   -0.0752   -0.0170 C   0  0  0  0  0  0  0  0  0  0  0  0
   93.3441   -0.0843   -0.0119 C   0  0  0  0  0  0  0  0  0  0  0  0
   94.6810   -0.0869   -0.0103 C   0  0  0  0  0  0  0  0  0  0  0  0
   95.9127   -0.0812   -0.0148 C   0  0  0  0  0  0  0  0  0  0  0  0
   97.2542   -0.0715   -0.0080 C   0  0  0  0  0  0  0  0  0  0  0  0
   98.4797   -0.0566   -0.0041 C   0  0  0  0  0  0  0  0  0  0  0  0
  108.1455   -0.0447   -0.0157 C   0  0  0  0  0  0  0  0  0  0  0  0
  109.3711   -0.0583   -0.0214 C   0  0  0  0  0  0  0  0  0  0  0  0
  110.7126   -0.0696   -0.0197 C   0  0  0  0  0  0  0  0  0  0  0  0
  111.9442   -0.0758   -0.0169 C   0  0  0  0  0  0  0  0  0  0  0  0
  113.2812   -0.0762   -0.0153 C   0  0  0  0  0  0  0  0  0  0  0  0
  114.5128   -0.0720   -0.0132 C   0  0  0  0  0  0  0  0  0  0  0  0
  115.8543   -0.0637   -0.0091 C   0  0  0  0  0  0  0  0  0  0  0  0
  117.0799   -0.0495   -0.0062 C   0  0  0  0  0  0  0  0  0  0  0  0
  126.7456   -0.0533   -0.0183 C   0  0  0  0  0  0  0  0  0  0  0  0
  127.9712   -0.0672   -0.0230 C   0  0  0  0  0  0  0  0  0  0  0  0
  129.3127   -0.0765   -0.0254 C   0  0  0  0  0  0  0  0  0  0  0  0
  130.5443   -0.0831   -0.0233 C   0  0  0  0  0  0  0  0  0  0  0  0
  131.8813   -0.0841   -0.0219 C   0  0  0  0  0  0  0  0  0  0  0  0
  133.1129   -0.0793   -0.0173 C   0  0  0  0  0  0  0  0  0  0  0  0
  134.4544   -0.0685   -0.0115 C   0  0  0  0  0  0  0  0  0  0  0  0
  135.6799   -0.0525   -0.0081 C   0  0  0  0  0  0  0  0  0  0  0  0
  145.3454   -0.0475    0.0071 C   0  0  0  0  0  0  0  0  0  0  0  0
  146.5707   -0.0650    0.0062 C   0  0  0  0  0  0  0  0  0  0  0  0
  147.9126   -0.0793    0.0077 C   0  0  0  0  0  0  0  0  0  0  0  0
  149.1439   -0.0889    0.0138 C   0  0  0  0  0  0  0  0  0  0  0  0
  150.4813   -0.0923    0.0166 C   0  0  0  0  0  0  0  0  0  0  0  0
  151.7126   -0.0894    0.0183 C   0  0  0  0  0  0  0  0  0  0  0  0
  153.0547   -0.0790    0.0164 C   0  0  0  0  0  0  0  0  0  0  0  0
  154.2798   -0.0621    0.0091 C   0  0  0  0  0  0  0  0  0  0  0  0
   81.2843    0.0671   -0.0182 C   0  0  0  0  0  0  0  0  0  0  0  0
   81.9065   -0.2448    1.2069 C   0  0  0  0  0  0  0  0  0  0  0  0
   81.2530   -0.5830    2.4194 C   0  0  0  0  0  0  0  0  0  0  0  0
   82.2137   -0.7778    3.3746 C   0  0  0  0  0  0  0  0  0  0  0  0
   83.4819   -0.5554    2.7735 C   0  0  0  0  0  0  0  0  0  0  0  0
   83.2457   -0.2490    1.4597 N   0  0  0  0  0  0  0  0  0  0  0  0
   84.7380   -0.6408    3.3891 C   0  0  0  0  0  0  0  0  0  0  0  0
   84.7436   -0.9228    4.8440 C   0  0  0  0  0  0  0  0  0  0  0  0
   85.3865   -2.0561    5.3487 C   0  0  0  0  0  0  0  0  0  0  0  0
   85.3937   -2.3222    6.7062 C   0  0  0  0  0  0  0  0  0  0  0  0
   84.7676   -1.4455    7.5964 C   0  0  0  0  0  0  0  0  0  0  0  0
   84.7414   -1.7271    8.9507 N   0  0  0  0  0  0  0  0  0  0  0  0
   84.1174   -0.3129    7.0993 C   0  0  0  0  0  0  0  0  0  0  0  0
   84.1058   -0.0600    5.7392 C   0  0  0  0  0  0  0  0  0  0  0  0
   85.9654   -0.4813    2.7425 C   0  0  0  0  0  0  0  0  0  0  0  0
   87.2479   -0.5137    3.4219 C   0  0  0  0  0  0  0  0  0  0  0  0
   88.1901   -0.3472    2.4702 C   0  0  0  0  0  0  0  0  0  0  0  0
   86.1492   -0.2701    1.4095 N   0  0  0  0  0  0  0  0  0  0  0  0
   87.4813   -0.1987    1.2153 C   0  0  0  0  0  0  0  0  0  0  0  0
   88.1423   -0.0145   -0.0168 C   0  0  0  0  0  0  0  0  0  0  0  0
   87.5187    0.2060   -1.2611 C   0  0  0  0  0  0  0  0  0  0  0  0
   88.1700    0.3655   -2.5109 C   0  0  0  0  0  0  0  0  0  0  0  0
   87.2097    0.5899   -3.4598 C   0  0  0  0  0  0  0  0  0  0  0  0
   85.9440    0.5829   -2.8138 C   0  0  0  0  0  0  0  0  0  0  0  0
   86.1811    0.3335   -1.4879 N   0  0  0  0  0  0  0  0  0  0  0  0
   84.6894    0.7800   -3.4059 C   0  0  0  0  0  0  0  0  0  0  0  0
   84.6845    1.1010   -4.8527 C   0  0  0  0  0  0  0  0  0  0  0  0
   85.3504    2.2313   -5.3339 C   0  0  0  0  0  0  0  0  0  0  0  0
   85.3428    2.5393   -6.6826 C   0  0  0  0  0  0  0  0  0  0  0  0
   84.6681    1.7142   -7.5864 C   0  0  0  0  0  0  0  0  0  0  0  0
   84.6987    1.9919   -8.9414 N   0  0  0  0  0  0  0  0  0  0  0  0
   84.0126    0.5736   -7.1152 C   0  0  0  0  0  0  0  0  0  0  0  0
   84.0163    0.2788   -5.7637 C   0  0  0  0  0  0  0  0  0  0  0  0
   83.4628    0.6976   -2.7430 C   0  0  0  0  0  0  0  0  0  0  0  0
   82.1833    0.9705   -3.3720 C   0  0  0  0  0  0  0  0  0  0  0  0
   81.2406    0.7642   -2.4285 C   0  0  0  0  0  0  0  0  0  0  0  0
   81.9465    0.3806   -1.2229 C   0  0  0  0  0  0  0  0  0  0  0  0
   83.2779    0.3620   -1.4362 N   0  0  0  0  0  0  0  0  0  0  0  0
   80.1848   -0.6690    2.5366 H   0  0  0  0  0  0  0  0  0  0  0  0
   82.0586   -1.0624    4.4024 H   0  0  0  0  0  0  0  0  0  0  0  0
   83.9694   -0.0599    0.7744 H   0  0  0  0  0  0  0  0  0  0  0  0
   85.8670   -2.7459    4.6637 H   0  0  0  0  0  0  0  0  0  0  0  0
   85.8867   -3.2110    7.0846 H   0  0  0  0  0  0  0  0  0  0  0  0
   85.4752   -2.3370    9.2740 H   0  0  0  0  0  0  0  0  0  0  0  0
   84.5784   -0.9328    9.5486 H   0  0  0  0  0  0  0  0  0  0  0  0
   83.6265    0.3694    7.7845 H   0  0  0  0  0  0  0  0  0  0  0  0
   83.6162    0.8320    5.3637 H   0  0  0  0  0  0  0  0  0  0  0  0
   87.3878   -0.6317    4.4842 H   0  0  0  0  0  0  0  0  0  0  0  0
   89.2620   -0.3127    2.5824 H   0  0  0  0  0  0  0  0  0  0  0  0
   89.2365    0.3087   -2.6579 H   0  0  0  0  0  0  0  0  0  0  0  0
   87.3632    0.7353   -4.5166 H   0  0  0  0  0  0  0  0  0  0  0  0
   85.4587    0.2494   -0.7807 H   0  0  0  0  0  0  0  0  0  0  0  0
   85.8596    2.8879   -4.6368 H   0  0  0  0  0  0  0  0  0  0  0  0
   85.8562    3.4243   -7.0423 H   0  0  0  0  0  0  0  0  0  0  0  0
   83.9527    1.5798   -9.4787 H   0  0  0  0  0  0  0  0  0  0  0  0
   84.8876    2.9532   -9.1762 H   0  0  0  0  0  0  0  0  0  0  0  0
   83.5000   -0.0786   -7.8138 H   0  0  0  0  0  0  0  0  0  0  0  0
   83.5132   -0.6133   -5.4073 H   0  0  0  0  0  0  0  0  0  0  0  0
   82.0458    1.2912   -4.3919 H   0  0  0  0  0  0  0  0  0  0  0  0
   80.1704    0.8662   -2.5121 H   0  0  0  0  0  0  0  0  0  0  0  0
   99.8830   -0.0376   -0.0015 C   0  0  0  0  0  0  0  0  0  0  0  0
  100.5117   -0.3270    1.2259 C   0  0  0  0  0  0  0  0  0  0  0  0
   99.8650   -0.6619    2.4428 C   0  0  0  0  0  0  0  0  0  0  0  0
  100.8298   -0.8338    3.3982 C   0  0  0  0  0  0  0  0  0  0  0  0
  102.0939   -0.6007    2.7924 C   0  0  0  0  0  0  0  0  0  0  0  0
  101.8512   -0.3103    1.4761 N   0  0  0  0  0  0  0  0  0  0  0  0
  103.3520   -0.6666    3.4061 C   0  0  0  0  0  0  0  0  0  0  0  0
  103.3626   -0.9335    4.8639 C   0  0  0  0  0  0  0  0  0  0  0  0
  104.0164   -2.0552    5.3803 C   0  0  0  0  0  0  0  0  0  0  0  0
  104.0270   -2.3065    6.7405 C   0  0  0  0  0  0  0  0  0  0  0  0
  103.3932   -1.4263    7.6217 C   0  0  0  0  0  0  0  0  0  0  0  0
  103.3702   -1.6936    8.9789 N   0  0  0  0  0  0  0  0  0  0  0  0
  102.7321   -0.3052    7.1129 C   0  0  0  0  0  0  0  0  0  0  0  0
  102.7173   -0.0672    5.7502 C   0  0  0  0  0  0  0  0  0  0  0  0
  104.5765   -0.5014    2.7554 C   0  0  0  0  0  0  0  0  0  0  0  0
  105.8611   -0.5197    3.4313 C   0  0  0  0  0  0  0  0  0  0  0  0
  106.7994   -0.3522    2.4759 C   0  0  0  0  0  0  0  0  0  0  0  0
  104.7550   -0.2968    1.4206 N   0  0  0  0  0  0  0  0  0  0  0  0
  106.0859   -0.2155    1.2223 C   0  0  0  0  0  0  0  0  0  0  0  0
  106.7422   -0.0279   -0.0119 C   0  0  0  0  0  0  0  0  0  0  0  0
  106.1136    0.1887   -1.2544 C   0  0  0  0  0  0  0  0  0  0  0  0
  106.7605    0.3621   -2.5045 C   0  0  0  0  0  0  0  0  0  0  0  0
  105.7956    0.5785   -3.4508 C   0  0  0  0  0  0  0  0  0  0  0  0
  104.5313    0.5509   -2.8028 C   0  0  0  0  0  0  0  0  0  0  0  0
  104.7740    0.2996   -1.4784 N   0  0  0  0  0  0  0  0  0  0  0  0
  103.2730    0.7293   -3.3933 C   0  0  0  0  0  0  0  0  0  0  0  0
  103.2622    1.0586   -4.8383 C   0  0  0  0  0  0  0  0  0  0  0  0
  103.9046    2.2059   -5.3111 C   0  0  0  0  0  0  0  0  0  0  0  0
  103.8892    2.5245   -6.6572 C   0  0  0  0  0  0  0  0  0  0  0  0
  103.2303    1.6932   -7.5670 C   0  0  0  0  0  0  0  0  0  0  0  0
  103.2527    1.9829   -8.9196 N   0  0  0  0  0  0  0  0  0  0  0  0
  102.5996    0.5351   -7.1044 C   0  0  0  0  0  0  0  0  0  0  0  0
  102.6108    0.2297   -5.7553 C   0  0  0  0  0  0  0  0  0  0  0  0
  102.0484    0.6220   -2.7307 C   0  0  0  0  0  0  0  0  0  0  0  0
  100.7636    0.8689   -3.3596 C   0  0  0  0  0  0  0  0  0  0  0  0
   99.8253    0.6446   -2.4159 C   0  0  0  0  0  0  0  0  0  0  0  0
  100.5390    0.2776   -1.2096 C   0  0  0  0  0  0  0  0  0  0  0  0
  101.8701    0.2837   -1.4233 N   0  0  0  0  0  0  0  0  0  0  0  0
   98.7983   -0.7615    2.5627 H   0  0  0  0  0  0  0  0  0  0  0  0
  100.6803   -1.1102    4.4291 H   0  0  0  0  0  0  0  0  0  0  0  0
  102.5711   -0.1180    0.7876 H   0  0  0  0  0  0  0  0  0  0  0  0
  104.5027   -2.7480    4.7024 H   0  0  0  0  0  0  0  0  0  0  0  0
  104.5285   -3.1865    7.1281 H   0  0  0  0  0  0  0  0  0  0  0  0
  104.1094   -2.2934    9.3085 H   0  0  0  0  0  0  0  0  0  0  0  0
  103.1997   -0.8947    9.5686 H   0  0  0  0  0  0  0  0  0  0  0  0
  102.2351    0.3798    7.7911 H   0  0  0  0  0  0  0  0  0  0  0  0
  102.2189    0.8160    5.3655 H   0  0  0  0  0  0  0  0  0  0  0  0
  106.0050   -0.6303    4.4939 H   0  0  0  0  0  0  0  0  0  0  0  0
  107.8713   -0.3089    2.5849 H   0  0  0  0  0  0  0  0  0  0  0  0
  107.8274    0.3203   -2.6535 H   0  0  0  0  0  0  0  0  0  0  0  0
  105.9452    0.7312   -4.5071 H   0  0  0  0  0  0  0  0  0  0  0  0
  104.0540    0.2033   -0.7702 H   0  0  0  0  0  0  0  0  0  0  0  0
  104.4012    2.8671   -4.6092 H   0  0  0  0  0  0  0  0  0  0  0  0
  104.3838    3.4227   -7.0103 H   0  0  0  0  0  0  0  0  0  0  0  0
  102.5145    1.5598   -9.4591 H   0  0  0  0  0  0  0  0  0  0  0  0
  103.4206    2.9501   -9.1463 H   0  0  0  0  0  0  0  0  0  0  0  0
  102.1000   -0.1220   -7.8077 H   0  0  0  0  0  0  0  0  0  0  0  0
  102.1267   -0.6756   -5.4056 H   0  0  0  0  0  0  0  0  0  0  0  0
  100.6195    1.1857   -4.3799 H   0  0  0  0  0  0  0  0  0  0  0  0
   98.7533    0.7253   -2.4995 H   0  0  0  0  0  0  0  0  0  0  0  0
  118.4832   -0.0322   -0.0030 C   0  0  0  0  0  0  0  0  0  0  0  0
  119.1116   -0.3224    1.2245 C   0  0  0  0  0  0  0  0  0  0  0  0
  118.4645   -0.6561    2.4415 C   0  0  0  0  0  0  0  0  0  0  0  0
  119.4292   -0.8291    3.3969 C   0  0  0  0  0  0  0  0  0  0  0  0
  120.6935   -0.5983    2.7909 C   0  0  0  0  0  0  0  0  0  0  0  0
  120.4511   -0.3079    1.4745 N   0  0  0  0  0  0  0  0  0  0  0  0
  121.9516   -0.6659    3.4045 C   0  0  0  0  0  0  0  0  0  0  0  0
  121.9621   -0.9318    4.8624 C   0  0  0  0  0  0  0  0  0  0  0  0
  122.6145   -2.0539    5.3796 C   0  0  0  0  0  0  0  0  0  0  0  0
  122.6254   -2.3038    6.7401 C   0  0  0  0  0  0  0  0  0  0  0  0
  121.9933   -1.4219    7.6207 C   0  0  0  0  0  0  0  0  0  0  0  0
  121.9707   -1.6877    8.9782 N   0  0  0  0  0  0  0  0  0  0  0  0
  121.3334   -0.3005    7.1111 C   0  0  0  0  0  0  0  0  0  0  0  0
  121.3183   -0.0637    5.7482 C   0  0  0  0  0  0  0  0  0  0  0  0
  123.1764   -0.5030    2.7535 C   0  0  0  0  0  0  0  0  0  0  0  0
  124.4610   -0.5230    3.4292 C   0  0  0  0  0  0  0  0  0  0  0  0
  125.3994   -0.3575    2.4736 C   0  0  0  0  0  0  0  0  0  0  0  0
  123.3549   -0.2992    1.4186 N   0  0  0  0  0  0  0  0  0  0  0  0
  124.6860   -0.2201    1.2201 C   0  0  0  0  0  0  0  0  0  0  0  0
  125.3423   -0.0338   -0.0142 C   0  0  0  0  0  0  0  0  0  0  0  0
  124.7140    0.1840   -1.2566 C   0  0  0  0  0  0  0  0  0  0  0  0
  125.3610    0.3564   -2.5068 C   0  0  0  0  0  0  0  0  0  0  0  0
  124.3963    0.5752   -3.4528 C   0  0  0  0  0  0  0  0  0  0  0  0
  123.1321    0.5498   -2.8045 C   0  0  0  0  0  0  0  0  0  0  0  0
  123.3745    0.2975   -1.4803 N   0  0  0  0  0  0  0  0  0  0  0  0
  121.8740    0.7306   -3.3949 C   0  0  0  0  0  0  0  0  0  0  0  0
  121.8638    1.0606   -4.8397 C   0  0  0  0  0  0  0  0  0  0  0  0
  122.5080    2.2072   -5.3118 C   0  0  0  0  0  0  0  0  0  0  0  0
  122.4935    2.5263   -6.6578 C   0  0  0  0  0  0  0  0  0  0  0  0
  121.8338    1.6964   -7.5681 C   0  0  0  0  0  0  0  0  0  0  0  0
  121.8571    1.9865   -8.9206 N   0  0  0  0  0  0  0  0  0  0  0  0
  121.2011    0.5391   -7.1062 C   0  0  0  0  0  0  0  0  0  0  0  0
  121.2114    0.2331   -5.7572 C   0  0  0  0  0  0  0  0  0  0  0  0
  120.6493    0.6247   -2.7323 C   0  0  0  0  0  0  0  0  0  0  0  0
  119.3648    0.8734   -3.3611 C   0  0  0  0  0  0  0  0  0  0  0  0
  118.4263    0.6499   -2.4174 C   0  0  0  0  0  0  0  0  0  0  0  0
  119.1396    0.2820   -1.2111 C   0  0  0  0  0  0  0  0  0  0  0  0
  120.4707    0.2864   -1.4249 N   0  0  0  0  0  0  0  0  0  0  0  0
  117.3976   -0.7540    2.5616 H   0  0  0  0  0  0  0  0  0  0  0  0
  119.2794   -1.1050    4.4279 H   0  0  0  0  0  0  0  0  0  0  0  0
  121.1712   -0.1169    0.7858 H   0  0  0  0  0  0  0  0  0  0  0  0
  123.0996   -2.7480    4.7022 H   0  0  0  0  0  0  0  0  0  0  0  0
  123.1258   -3.1841    7.1284 H   0  0  0  0  0  0  0  0  0  0  0  0
  122.7094   -2.2880    9.3080 H   0  0  0  0  0  0  0  0  0  0  0  0
  121.8016   -0.8879    9.5671 H   0  0  0  0  0  0  0  0  0  0  0  0
  120.8376    0.3859    7.7889 H   0  0  0  0  0  0  0  0  0  0  0  0
  120.8209    0.8197    5.3628 H   0  0  0  0  0  0  0  0  0  0  0  0
  124.6049   -0.6333    4.4918 H   0  0  0  0  0  0  0  0  0  0  0  0
  126.4714   -0.3159    2.5824 H   0  0  0  0  0  0  0  0  0  0  0  0
  126.4278    0.3126   -2.6560 H   0  0  0  0  0  0  0  0  0  0  0  0
  124.5460    0.7280   -4.5090 H   0  0  0  0  0  0  0  0  0  0  0  0
  122.6544    0.2023   -0.7720 H   0  0  0  0  0  0  0  0  0  0  0  0
  123.0054    2.8673   -4.6095 H   0  0  0  0  0  0  0  0  0  0  0  0
  122.9897    3.4240   -7.0103 H   0  0  0  0  0  0  0  0  0  0  0  0
  121.1186    1.5646   -9.4606 H   0  0  0  0  0  0  0  0  0  0  0  0
  122.0265    2.9535   -9.1470 H   0  0  0  0  0  0  0  0  0  0  0  0
  120.7008   -0.1171   -7.8100 H   0  0  0  0  0  0  0  0  0  0  0  0
  120.7259   -0.6716   -5.4080 H   0  0  0  0  0  0  0  0  0  0  0  0
  119.2211    1.1905   -4.3813 H   0  0  0  0  0  0  0  0  0  0  0  0
  117.3544    0.7318   -2.5009 H   0  0  0  0  0  0  0  0  0  0  0  0
  137.0832   -0.0335   -0.0010 C   0  0  0  0  0  0  0  0  0  0  0  0
  137.7084   -0.3248    1.2278 C   0  0  0  0  0  0  0  0  0  0  0  0
  137.0581   -0.6608    2.4426 C   0  0  0  0  0  0  0  0  0  0  0  0
  138.0201   -0.8344    3.4004 C   0  0  0  0  0  0  0  0  0  0  0  0
  139.2861   -0.6017    2.7983 C   0  0  0  0  0  0  0  0  0  0  0  0
  139.0472   -0.3095    1.4816 N   0  0  0  0  0  0  0  0  0  0  0  0
  140.5423   -0.6701    3.4152 C   0  0  0  0  0  0  0  0  0  0  0  0
  140.5483   -0.9374    4.8730 C   0  0  0  0  0  0  0  0  0  0  0  0
  141.1981   -2.0603    5.3916 C   0  0  0  0  0  0  0  0  0  0  0  0
  141.2034   -2.3115    6.7520 C   0  0  0  0  0  0  0  0  0  0  0  0
  140.5680   -1.4303    7.6309 C   0  0  0  0  0  0  0  0  0  0  0  0
  140.5392   -1.6977    8.9880 N   0  0  0  0  0  0  0  0  0  0  0  0
  139.9109   -0.3079    7.1198 C   0  0  0  0  0  0  0  0  0  0  0  0
  139.9015   -0.0698    5.7570 C   0  0  0  0  0  0  0  0  0  0  0  0
  141.7689   -0.5067    2.7676 C   0  0  0  0  0  0  0  0  0  0  0  0
  143.0519   -0.5298    3.4464 C   0  0  0  0  0  0  0  0  0  0  0  0
  143.9928   -0.3625    2.4935 C   0  0  0  0  0  0  0  0  0  0  0  0
  141.9506   -0.2993    1.4339 N   0  0  0  0  0  0  0  0  0  0  0  0
  143.2824   -0.2203    1.2387 C   0  0  0  0  0  0  0  0  0  0  0  0
  143.9416   -0.0276    0.0072 C   0  0  0  0  0  0  0  0  0  0  0  0
  143.3170    0.1967   -1.2357 C   0  0  0  0  0  0  0  0  0  0  0  0
  143.9677    0.3756   -2.4831 C   0  0  0  0  0  0  0  0  0  0  0  0
  143.0056    0.5951   -3.4315 C   0  0  0  0  0  0  0  0  0  0  0  0
  141.7392    0.5638   -2.7876 C   0  0  0  0  0  0  0  0  0  0  0  0
  141.9779    0.3080   -1.4634 N   0  0  0  0  0  0  0  0  0  0  0  0
  140.4825    0.7415   -3.3816 C   0  0  0  0  0  0  0  0  0  0  0  0
  140.4748    1.0717   -4.8265 C   0  0  0  0  0  0  0  0  0  0  0  0
  141.1150    2.2209   -5.2975 C   0  0  0  0  0  0  0  0  0  0  0  0
  141.1017    2.5396   -6.6437 C   0  0  0  0  0  0  0  0  0  0  0  0
  140.4474    1.7066   -7.5550 C   0  0  0  0  0  0  0  0  0  0  0  0
  140.4718    1.9967   -8.9076 N   0  0  0  0  0  0  0  0  0  0  0  0
  139.8191    0.5466   -7.0942 C   0  0  0  0  0  0  0  0  0  0  0  0
  139.8281    0.2409   -5.7451 C   0  0  0  0  0  0  0  0  0  0  0  0
  139.2561    0.6315   -2.7228 C   0  0  0  0  0  0  0  0  0  0  0  0
  137.9729    0.8779   -3.3553 C   0  0  0  0  0  0  0  0  0  0  0  0
  137.0321    0.6514   -2.4147 C   0  0  0  0  0  0  0  0  0  0  0  0
  137.7426    0.2836   -1.2067 C   0  0  0  0  0  0  0  0  0  0  0  0
  139.0743    0.2911   -1.4164 N   0  0  0  0  0  0  0  0  0  0  0  0
  135.9909   -0.7598    2.5595 H   0  0  0  0  0  0  0  0  0  0  0  0
  137.8677   -1.1119    4.4306 H   0  0  0  0  0  0  0  0  0  0  0  0
  139.7690   -0.1169    0.7953 H   0  0  0  0  0  0  0  0  0  0  0  0
  141.6856   -2.7540    4.7155 H   0  0  0  0  0  0  0  0  0  0  0  0
  141.7019   -3.1925    7.1414 H   0  0  0  0  0  0  0  0  0  0  0  0
  141.2764   -2.2985    9.3204 H   0  0  0  0  0  0  0  0  0  0  0  0
  140.3677   -0.8985    9.5769 H   0  0  0  0  0  0  0  0  0  0  0  0
  139.4126    0.3779    7.7962 H   0  0  0  0  0  0  0  0  0  0  0  0
  139.4061    0.8142    5.3705 H   0  0  0  0  0  0  0  0  0  0  0  0
  143.1932   -0.6433    4.5090 H   0  0  0  0  0  0  0  0  0  0  0  0
  145.0645   -0.3221    2.6049 H   0  0  0  0  0  0  0  0  0  0  0  0
  145.0350    0.3351   -2.6289 H   0  0  0  0  0  0  0  0  0  0  0  0
  143.1583    0.7523   -4.4867 H   0  0  0  0  0  0  0  0  0  0  0  0
  141.2557    0.2080   -0.7580 H   0  0  0  0  0  0  0  0  0  0  0  0
  141.6080    2.8834   -4.5943 H   0  0  0  0  0  0  0  0  0  0  0  0
  141.5946    3.4394   -6.9954 H   0  0  0  0  0  0  0  0  0  0  0  0
  139.7359    1.5715   -9.4486 H   0  0  0  0  0  0  0  0  0  0  0  0
  140.6368    2.9645   -9.1336 H   0  0  0  0  0  0  0  0  0  0  0  0
  139.3231   -0.1120   -7.7988 H   0  0  0  0  0  0  0  0  0  0  0  0
  139.3459   -0.6657   -5.3966 H   0  0  0  0  0  0  0  0  0  0  0  0
  137.8316    1.1958   -4.3756 H   0  0  0  0  0  0  0  0  0  0  0  0
  135.9602    0.7311   -2.5012 H   0  0  0  0  0  0  0  0  0  0  0  0
  1  2  4  0  0  0  0
  2  3  4  0  0  0  0
  3  4  2  0  0  0  0
  4  5  4  0  0  0  0
  2  6  4  0  0  0  0
  5  6  4  0  0  0  0
  5  7  4  0  0  0  0
  7  8  1  0  0  0  0
  8  9  4  0  0  0  0
  9 10  4  0  0  0  0
 10 11  4  0  0  0  0
 11 12  1  0  0  0  0
 11 13  4  0  0  0  0
  8 14  4  0  0  0  0
 13 14  4  0  0  0  0
  7 15  4  0  0  0  0
 15 16  1  0  0  0  0
 16 17  2  0  0  0  0
 15 18  4  0  0  0  0
 17 19  1  0  0  0  0
 18 19  4  0  0  0  0
 19 20  4  0  0  0  0
 20 21  4  0  0  0  0
 21 22  4  0  0  0  0
 22 23  2  0  0  0  0
 23 24  4  0  0  0  0
 21 25  4  0  0  0  0
 24 25  4  0  0  0  0
 24 26  4  0  0  0  0
 26 27  1  0  0  0  0
 27 28  4  0  0  0  0
 28 29  4  0  0  0  0
 29 30  4  0  0  0  0
 30 31  1  0  0  0  0
 30 32  4  0  0  0  0
 27 33  4  0  0  0  0
 32 33  4  0  0  0  0
 26 34  4  0  0  0  0
 34 35  1  0  0  0  0
 35 36  2  0  0  0  0
  1 37  4  0  0  0  0
 36 37  1  0  0  0  0
 34 38  4  0  0  0  0
 37 38  4  0  0  0  0
  1 39  1  0  0  0  0
  3 40  1  0  0  0  0
  4 41  1  0  0  0  0
  6 42  1  0  0  0  0
  9 43  1  0  0  0  0
 10 44  1  0  0  0  0
 12 45  1  0  0  0  0
 12 46  1  0  0  0  0
 13 47  1  0  0  0  0
 14 48  1  0  0  0  0
 16 49  1  0  0  0  0
 17 50  1  0  0  0  0
 22 51  1  0  0  0  0
 23 52  1  0  0  0  0
 25 53  1  0  0  0  0
 28 54  1  0  0  0  0
 29 55  1  0  0  0  0
 31 56  1  0  0  0  0
 31 57  1  0  0  0  0
 32 58  1  0  0  0  0
 33 59  1  0  0  0  0
 35 60  1  0  0  0  0
 36 61  1  0  0  0  0
 62 63  4  0  0  0  0
 63 64  4  0  0  0  0
 64 65  2  0  0  0  0
 65 66  4  0  0  0  0
 63 67  4  0  0  0  0
 66 67  4  0  0  0  0
 66 68  4  0  0  0  0
 68 69  1  0  0  0  0
 69 70  4  0  0  0  0
 70 71  4  0  0  0  0
 71 72  4  0  0  0  0
 72 73  1  0  0  0  0
 72 74  4  0  0  0  0
 69 75  4  0  0  0  0
 74 75  4  0  0  0  0
 68 76  4  0  0  0  0
 76 77  1  0  0  0  0
 77 78  2  0  0  0  0
 76 79  4  0  0  0  0
 78 80  1  0  0  0  0
 79 80  4  0  0  0  0
 80 81  4  0  0  0  0
 81 82  4  0  0  0  0
 82 83  4  0  0  0  0
 83 84  2  0  0  0  0
 84 85  4  0  0  0  0
 82 86  4  0  0  0  0
 85 86  4  0  0  0  0
 85 87  4  0  0  0  0
 87 88  1  0  0  0  0
 88 89  4  0  0  0  0
 89 90  4  0  0  0  0
 90 91  4  0  0  0  0
 91 92  1  0  0  0  0
 91 93  4  0  0  0  0
 88 94  4  0  0  0  0
 93 94  4  0  0  0  0
 87 95  4  0  0  0  0
 95 96  1  0  0  0  0
 96 97  2  0  0  0  0
 62 98  4  0  0  0  0
 97 98  1  0  0  0  0
 95 99  4  0  0  0  0
 98 99  4  0  0  0  0
 62100  1  0  0  0  0
 64101  1  0  0  0  0
 65102  1  0  0  0  0
 67103  1  0  0  0  0
 70104  1  0  0  0  0
 71105  1  0  0  0  0
 73106  1  0  0  0  0
 73107  1  0  0  0  0
 74108  1  0  0  0  0
 75109  1  0  0  0  0
 77110  1  0  0  0  0
 78111  1  0  0  0  0
 83112  1  0  0  0  0
 84113  1  0  0  0  0
 86114  1  0  0  0  0
 89115  1  0  0  0  0
 90116  1  0  0  0  0
 92117  1  0  0  0  0
 92118  1  0  0  0  0
 93119  1  0  0  0  0
 94120  1  0  0  0  0
 96121  1  0  0  0  0
 97122  1  0  0  0  0
 20123  4  0  0  0  0
123124  3  0  0  0  0
124125  4  0  0  0  0
125126  3  0  0  0  0
126127  4  0  0  0  0
127128  3  0  0  0  0
128129  4  0  0  0  0
129130  3  0  0  0  0
131132  3  0  0  0  0
132133  4  0  0  0  0
133134  3  0  0  0  0
134135  4  0  0  0  0
135136  3  0  0  0  0
136137  4  0  0  0  0
137138  3  0  0  0  0
139140  3  0  0  0  0
140141  4  0  0  0  0
141142  3  0  0  0  0
142143  4  0  0  0  0
143144  3  0  0  0  0
144145  4  0  0  0  0
145146  3  0  0  0  0
147148  3  0  0  0  0
148149  4  0  0  0  0
149150  3  0  0  0  0
150151  4  0  0  0  0
151152  3  0  0  0  0
152153  4  0  0  0  0
153154  3  0  0  0  0
155156  3  0  0  0  0
156157  4  0  0  0  0
157158  3  0  0  0  0
158159  4  0  0  0  0
159160  3  0  0  0  0
160161  4  0  0  0  0
 81162  4  0  0  0  0
161162  3  0  0  0  0
130163  4  0  0  0  0
163164  4  0  0  0  0
164165  4  0  0  0  0
165166  2  0  0  0  0
166167  4  0  0  0  0
164168  4  0  0  0  0
167168  4  0  0  0  0
167169  4  0  0  0  0
169170  1  0  0  0  0
170171  4  0  0  0  0
171172  4  0  0  0  0
172173  4  0  0  0  0
173174  1  0  0  0  0
173175  4  0  0  0  0
170176  4  0  0  0  0
175176  4  0  0  0  0
169177  4  0  0  0  0
177178  1  0  0  0  0
178179  2  0  0  0  0
177180  4  0  0  0  0
179181  1  0  0  0  0
180181  4  0  0  0  0
131182  4  0  0  0  0
181182  4  0  0  0  0
182183  4  0  0  0  0
183184  4  0  0  0  0
184185  2  0  0  0  0
185186  4  0  0  0  0
183187  4  0  0  0  0
186187  4  0  0  0  0
186188  4  0  0  0  0
188189  1  0  0  0  0
189190  4  0  0  0  0
190191  4  0  0  0  0
191192  4  0  0  0  0
192193  1  0  0  0  0
192194  4  0  0  0  0
189195  4  0  0  0  0
194195  4  0  0  0  0
188196  4  0  0  0  0
196197  1  0  0  0  0
197198  2  0  0  0  0
163199  4  0  0  0  0
198199  1  0  0  0  0
196200  4  0  0  0  0
199200  4  0  0  0  0
165201  1  0  0  0  0
166202  1  0  0  0  0
168203  1  0  0  0  0
171204  1  0  0  0  0
172205  1  0  0  0  0
174206  1  0  0  0  0
174207  1  0  0  0  0
175208  1  0  0  0  0
176209  1  0  0  0  0
178210  1  0  0  0  0
179211  1  0  0  0  0
184212  1  0  0  0  0
185213  1  0  0  0  0
187214  1  0  0  0  0
190215  1  0  0  0  0
191216  1  0  0  0  0
193217  1  0  0  0  0
193218  1  0  0  0  0
194219  1  0  0  0  0
195220  1  0  0  0  0
197221  1  0  0  0  0
198222  1  0  0  0  0
138223  4  0  0  0  0
223224  4  0  0  0  0
224225  4  0  0  0  0
225226  2  0  0  0  0
226227  4  0  0  0  0
224228  4  0  0  0  0
227228  4  0  0  0  0
227229  4  0  0  0  0
229230  1  0  0  0  0
230231  4  0  0  0  0
231232  4  0  0  0  0
232233  4  0  0  0  0
233234  1  0  0  0  0
233235  4  0  0  0  0
230236  4  0  0  0  0
235236  4  0  0  0  0
229237  4  0  0  0  0
237238  1  0  0  0  0
238239  2  0  0  0  0
237240  4  0  0  0  0
239241  1  0  0  0  0
240241  4  0  0  0  0
139242  4  0  0  0  0
241242  4  0  0  0  0
242243  4  0  0  0  0
243244  4  0  0  0  0
244245  2  0  0  0  0
245246  4  0  0  0  0
243247  4  0  0  0  0
246247  4  0  0  0  0
246248  4  0  0  0  0
248249  1  0  0  0  0
249250  4  0  0  0  0
250251  4  0  0  0  0
251252  4  0  0  0  0
252253  1  0  0  0  0
252254  4  0  0  0  0
249255  4  0  0  0  0
254255  4  0  0  0  0
248256  4  0  0  0  0
256257  1  0  0  0  0
257258  2  0  0  0  0
223259  4  0  0  0  0
258259  1  0  0  0  0
256260  4  0  0  0  0
259260  4  0  0  0  0
225261  1  0  0  0  0
226262  1  0  0  0  0
228263  1  0  0  0  0
231264  1  0  0  0  0
232265  1  0  0  0  0
234266  1  0  0  0  0
234267  1  0  0  0  0
235268  1  0  0  0  0
236269  1  0  0  0  0
238270  1  0  0  0  0
239271  1  0  0  0  0
244272  1  0  0  0  0
245273  1  0  0  0  0
247274  1  0  0  0  0
250275  1  0  0  0  0
251276  1  0  0  0  0
253277  1  0  0  0  0
253278  1  0  0  0  0
254279  1  0  0  0  0
255280  1  0  0  0  0
257281  1  0  0  0  0
258282  1  0  0  0  0
146283  4  0  0  0  0
283284  4  0  0  0  0
284285  4  0  0  0  0
285286  2  0  0  0  0
286287  4  0  0  0  0
284288  4  0  0  0  0
287288  4  0  0  0  0
287289  4  0  0  0  0
289290  1  0  0  0  0
290291  4  0  0  0  0
291292  4  0  0  0  0
292293  4  0  0  0  0
293294  1  0  0  0  0
293295  4  0  0  0  0
290296  4  0  0  0  0
295296  4  0  0  0  0
289297  4  0  0  0  0
297298  1  0  0  0  0
298299  2  0  0  0  0
297300  4  0  0  0  0
299301  1  0  0  0  0
300301  4  0  0  0  0
147302  4  0  0  0  0
301302  4  0  0  0  0
302303  4  0  0  0  0
303304  4  0  0  0  0
304305  2  0  0  0  0
305306  4  0  0  0  0
303307  4  0  0  0  0
306307  4  0  0  0  0
306308  4  0  0  0  0
308309  1  0  0  0  0
309310  4  0  0  0  0
310311  4  0  0  0  0
311312  4  0  0  0  0
312313  1  0  0  0  0
312314  4  0  0  0  0
309315  4  0  0  0  0
314315  4  0  0  0  0
308316  4  0  0  0  0
316317  1  0  0  0  0
317318  2  0  0  0  0
283319  4  0  0  0  0
318319  1  0  0  0  0
316320  4  0  0  0  0
319320  4  0  0  0  0
285321  1  0  0  0  0
286322  1  0  0  0  0
288323  1  0  0  0  0
291324  1  0  0  0  0
292325  1  0  0  0  0
294326  1  0  0  0  0
294327  1  0  0  0  0
295328  1  0  0  0  0
296329  1  0  0  0  0
298330  1  0  0  0  0
299331  1  0  0  0  0
304332  1  0  0  0  0
305333  1  0  0  0  0
307334  1  0  0  0  0
310335  1  0  0  0  0
311336  1  0  0  0  0
313337  1  0  0  0  0
313338  1  0  0  0  0
314339  1  0  0  0  0
315340  1  0  0  0  0
317341  1  0  0  0  0
318342  1  0  0  0  0
154343  4  0  0  0  0
343344  4  0  0  0  0
344345  4  0  0  0  0
345346  2  0  0  0  0
346347  4  0  0  0  0
344348  4  0  0  0  0
347348  4  0  0  0  0
347349  4  0  0  0  0
349350  1  0  0  0  0
350351  4  0  0  0  0
351352  4  0  0  0  0
352353  4  0  0  0  0
353354  1  0  0  0  0
353355  4  0  0  0  0
350356  4  0  0  0  0
355356  4  0  0  0  0
349357  4  0  0  0  0
357358  1  0  0  0  0
358359  2  0  0  0  0
357360  4  0  0  0  0
359361  1  0  0  0  0
360361  4  0  0  0  0
155362  4  0  0  0  0
361362  4  0  0  0  0
362363  4  0  0  0  0
363364  4  0  0  0  0
364365  2  0  0  0  0
365366  4  0  0  0  0
363367  4  0  0  0  0
366367  4  0  0  0  0
366368  4  0  0  0  0
368369  1  0  0  0  0
369370  4  0  0  0  0
370371  4  0  0  0  0
371372  4  0  0  0  0
372373  1  0  0  0  0
372374  4  0  0  0  0
369375  4  0  0  0  0
374375  4  0  0  0  0
368376  4  0  0  0  0
376377  1  0  0  0  0
377378  2  0  0  0  0
343379  4  0  0  0  0
378379  1  0  0  0  0
376380  4  0  0  0  0
379380  4  0  0  0  0
345381  1  0  0  0  0
346382  1  0  0  0  0
348383  1  0  0  0  0
351384  1  0  0  0  0
352385  1  0  0  0  0
354386  1  0  0  0  0
354387  1  0  0  0  0
355388  1  0  0  0  0
356389  1  0  0  0  0
358390  1  0  0  0  0
359391  1  0  0  0  0
364392  1  0  0  0  0
365393  1  0  0  0  0
367394  1  0  0  0  0
370395  1  0  0  0  0
371396  1  0  0  0  0
373397  1  0  0  0  0
373398  1  0  0  0  0
374399  1  0  0  0  0
375400  1  0  0  0  0
377401  1  0  0  0  0
378402  1  0  0  0  0
M  END
