 xtb: 6.5.1 (b24c23e)
          07302204193D

264303  0     0  0            999 V2000
   46.1732   -0.0035    0.0358 Co  0  0  0  0  0  0  0  0  0  0  0  0
   42.8018    0.0321    0.1404 C   0  0  0  0  0  0  0  0  0  0  0  0
   43.4594    1.2145   -0.1235 C   0  0  0  0  0  0  0  0  0  0  0  0
   42.7946    2.4586   -0.3652 C   0  0  0  0  0  0  0  0  0  0  0  0
   43.7574    3.4080   -0.4236 C   0  0  0  0  0  0  0  0  0  0  0  0
   45.0101    2.7433   -0.2097 C   0  0  0  0  0  0  0  0  0  0  0  0
   44.8193    1.3912   -0.0755 N   0  0  0  0  0  0  0  0  0  0  0  0
   46.2062    3.4062    0.0301 C   0  0  0  0  0  0  0  0  0  0  0  0
   46.2174    4.8904    0.0155 C   0  0  0  0  0  0  0  0  0  0  0  0
   45.9799    5.5772   -1.1743 C   0  0  0  0  0  0  0  0  0  0  0  0
   45.9919    6.9674   -1.1895 C   0  0  0  0  0  0  0  0  0  0  0  0
   45.7698    7.6466   -2.3409 O   0  0  0  0  0  0  0  0  0  0  0  0
   46.2340    7.6734   -0.0099 C   0  0  0  0  0  0  0  0  0  0  0  0
   46.2360    9.0430   -0.0547 O   0  0  0  0  0  0  0  0  0  0  0  0
   46.4655    6.9858    1.1786 C   0  0  0  0  0  0  0  0  0  0  0  0
   46.6897    7.7471    2.2955 O   0  0  0  0  0  0  0  0  0  0  0  0
   46.4616    5.5963    1.1958 C   0  0  0  0  0  0  0  0  0  0  0  0
   47.3813    2.7250    0.3080 C   0  0  0  0  0  0  0  0  0  0  0  0
   48.6311    3.3631    0.5942 C   0  0  0  0  0  0  0  0  0  0  0  0
   49.5696    2.3873    0.6343 C   0  0  0  0  0  0  0  0  0  0  0  0
   47.5523    1.3627    0.2035 N   0  0  0  0  0  0  0  0  0  0  0  0
   48.8949    1.1594    0.3548 C   0  0  0  0  0  0  0  0  0  0  0  0
   49.5657   -0.0397    0.0982 C   0  0  0  0  0  0  0  0  0  0  0  0
   48.8811   -1.2163   -0.2188 C   0  0  0  0  0  0  0  0  0  0  0  0
   49.5340   -2.4349   -0.5787 C   0  0  0  0  0  0  0  0  0  0  0  0
   48.5681   -3.3804   -0.6692 C   0  0  0  0  0  0  0  0  0  0  0  0
   47.3301   -2.7387   -0.3421 C   0  0  0  0  0  0  0  0  0  0  0  0
   47.5297   -1.3921   -0.1317 N   0  0  0  0  0  0  0  0  0  0  0  0
   46.1340   -3.4104   -0.1439 C   0  0  0  0  0  0  0  0  0  0  0  0
   46.1084   -4.8887   -0.2435 C   0  0  0  0  0  0  0  0  0  0  0  0
   46.9039   -5.6639    0.6006 C   0  0  0  0  0  0  0  0  0  0  0  0
   46.8729   -7.0503    0.5085 C   0  0  0  0  0  0  0  0  0  0  0  0
   47.6340   -7.8135    1.3301 O   0  0  0  0  0  0  0  0  0  0  0  0
   46.0521   -7.6661   -0.4379 C   0  0  0  0  0  0  0  0  0  0  0  0
   46.0465   -9.0343   -0.5099 O   0  0  0  0  0  0  0  0  0  0  0  0
   45.2609   -6.8918   -1.2829 C   0  0  0  0  0  0  0  0  0  0  0  0
   44.4854   -7.5673   -2.1884 O   0  0  0  0  0  0  0  0  0  0  0  0
   45.2808   -5.5062   -1.1855 C   0  0  0  0  0  0  0  0  0  0  0  0
   44.9578   -2.7366    0.1620 C   0  0  0  0  0  0  0  0  0  0  0  0
   43.7165   -3.3834    0.4713 C   0  0  0  0  0  0  0  0  0  0  0  0
   42.7803   -2.4097    0.5663 C   0  0  0  0  0  0  0  0  0  0  0  0
   43.4511   -1.1707    0.3160 C   0  0  0  0  0  0  0  0  0  0  0  0
   44.7954   -1.3761    0.1278 N   0  0  0  0  0  0  0  0  0  0  0  0
   41.7196    0.0460    0.1949 H   0  0  0  0  0  0  0  0  0  0  0  0
   41.7265    2.5717   -0.4616 H   0  0  0  0  0  0  0  0  0  0  0  0
   43.6421    4.4694   -0.5712 H   0  0  0  0  0  0  0  0  0  0  0  0
   45.8026    5.0387   -2.0962 H   0  0  0  0  0  0  0  0  0  0  0  0
   45.8197    8.5976   -2.1486 H   0  0  0  0  0  0  0  0  0  0  0  0
   46.4174    9.3709    0.8404 H   0  0  0  0  0  0  0  0  0  0  0  0
   46.8381    7.1876    3.0690 H   0  0  0  0  0  0  0  0  0  0  0  0
   46.6284    5.0674    2.1267 H   0  0  0  0  0  0  0  0  0  0  0  0
   48.7662    4.4241    0.7270 H   0  0  0  0  0  0  0  0  0  0  0  0
   50.6295    2.4773    0.8098 H   0  0  0  0  0  0  0  0  0  0  0  0
   50.5955   -2.5371   -0.7365 H   0  0  0  0  0  0  0  0  0  0  0  0
   48.6738   -4.4216   -0.9266 H   0  0  0  0  0  0  0  0  0  0  0  0
   47.5337   -5.1971    1.3469 H   0  0  0  0  0  0  0  0  0  0  0  0
   47.4739   -8.7471    1.1147 H   0  0  0  0  0  0  0  0  0  0  0  0
   45.4300   -9.2940   -1.2129 H   0  0  0  0  0  0  0  0  0  0  0  0
   43.9783   -6.9516   -2.7336 H   0  0  0  0  0  0  0  0  0  0  0  0
   44.6711   -4.9092   -1.8535 H   0  0  0  0  0  0  0  0  0  0  0  0
   43.5921   -4.4465    0.5993 H   0  0  0  0  0  0  0  0  0  0  0  0
   41.7262   -2.5028    0.7742 H   0  0  0  0  0  0  0  0  0  0  0  0
   94.0138   -0.0630    0.0760 Co  0  0  0  0  0  0  0  0  0  0  0  0
   97.3853   -0.1114    0.1817 C   0  0  0  0  0  0  0  0  0  0  0  0
   96.7287   -1.2571   -0.2136 C   0  0  0  0  0  0  0  0  0  0  0  0
   97.3947   -2.4660   -0.5919 C   0  0  0  0  0  0  0  0  0  0  0  0
   96.4317   -3.4006   -0.7681 C   0  0  0  0  0  0  0  0  0  0  0  0
   95.1781   -2.7631   -0.4876 C   0  0  0  0  0  0  0  0  0  0  0  0
   95.3686   -1.4364   -0.1951 N   0  0  0  0  0  0  0  0  0  0  0  0
   93.9801   -3.4485   -0.3369 C   0  0  0  0  0  0  0  0  0  0  0  0
   93.9683   -4.9201   -0.5316 C   0  0  0  0  0  0  0  0  0  0  0  0
   94.2033   -5.4572   -1.7966 C   0  0  0  0  0  0  0  0  0  0  0  0
   94.1891   -6.8351   -1.9809 C   0  0  0  0  0  0  0  0  0  0  0  0
   94.4080   -7.3693   -3.2068 O   0  0  0  0  0  0  0  0  0  0  0  0
   93.9482   -7.6791   -0.8955 C   0  0  0  0  0  0  0  0  0  0  0  0
   93.9441   -9.0331   -1.1067 O   0  0  0  0  0  0  0  0  0  0  0  0
   93.7201   -7.1412    0.3683 C   0  0  0  0  0  0  0  0  0  0  0  0
   93.4975   -8.0325    1.3849 O   0  0  0  0  0  0  0  0  0  0  0  0
   93.7253   -5.7641    0.5545 C   0  0  0  0  0  0  0  0  0  0  0  0
   92.8045   -2.8054    0.0180 C   0  0  0  0  0  0  0  0  0  0  0  0
   91.5550   -3.4737    0.2252 C   0  0  0  0  0  0  0  0  0  0  0  0
   90.6177   -2.5101    0.3911 C   0  0  0  0  0  0  0  0  0  0  0  0
   92.6344   -1.4405    0.0836 N   0  0  0  0  0  0  0  0  0  0  0  0
   91.2927   -1.2572    0.2650 C   0  0  0  0  0  0  0  0  0  0  0  0
   90.6214   -0.0355    0.1625 C   0  0  0  0  0  0  0  0  0  0  0  0
   91.3044    1.1705   -0.0191 C   0  0  0  0  0  0  0  0  0  0  0  0
   90.6487    2.4212   -0.2346 C   0  0  0  0  0  0  0  0  0  0  0  0
   91.6145    3.3710   -0.2323 C   0  0  0  0  0  0  0  0  0  0  0  0
   92.8553    2.6979    0.0105 C   0  0  0  0  0  0  0  0  0  0  0  0
   92.6566    1.3360    0.0734 N   0  0  0  0  0  0  0  0  0  0  0  0
   94.0533    3.3443    0.2712 C   0  0  0  0  0  0  0  0  0  0  0  0
   94.0807    4.8244    0.3315 C   0  0  0  0  0  0  0  0  0  0  0  0
   93.2793    5.5063    1.2477 C   0  0  0  0  0  0  0  0  0  0  0  0
   93.3117    6.8947    1.3046 C   0  0  0  0  0  0  0  0  0  0  0  0
   92.5435    7.5662    2.1964 O   0  0  0  0  0  0  0  0  0  0  0  0
   94.1416    7.6071    0.4372 C   0  0  0  0  0  0  0  0  0  0  0  0
   94.1492    8.9747    0.5129 O   0  0  0  0  0  0  0  0  0  0  0  0
   94.9398    6.9262   -0.4787 C   0  0  0  0  0  0  0  0  0  0  0  0
   95.7250    7.6935   -1.2985 O   0  0  0  0  0  0  0  0  0  0  0  0
   94.9169    5.5384   -0.5316 C   0  0  0  0  0  0  0  0  0  0  0  0
   95.2306    2.6407    0.4973 C   0  0  0  0  0  0  0  0  0  0  0  0
   96.4724    3.2496    0.8742 C   0  0  0  0  0  0  0  0  0  0  0  0
   97.4078    2.2706    0.8650 C   0  0  0  0  0  0  0  0  0  0  0  0
   96.7361    1.0662    0.4832 C   0  0  0  0  0  0  0  0  0  0  0  0
   95.3921    1.2919    0.3168 N   0  0  0  0  0  0  0  0  0  0  0  0
   98.4674   -0.1317    0.2382 H   0  0  0  0  0  0  0  0  0  0  0  0
   98.4635   -2.5687   -0.6926 H   0  0  0  0  0  0  0  0  0  0  0  0
   96.5470   -4.4379   -1.0373 H   0  0  0  0  0  0  0  0  0  0  0  0
   94.3803   -4.8104   -2.6461 H   0  0  0  0  0  0  0  0  0  0  0  0
   94.3552   -8.3365   -3.1321 H   0  0  0  0  0  0  0  0  0  0  0  0
   93.7630   -9.4673   -0.2579 H   0  0  0  0  0  0  0  0  0  0  0  0
   93.3517   -7.5709    2.2211 H   0  0  0  0  0  0  0  0  0  0  0  0
   93.5604   -5.3521    1.5431 H   0  0  0  0  0  0  0  0  0  0  0  0
   91.4195   -4.5429    0.2242 H   0  0  0  0  0  0  0  0  0  0  0  0
   89.5583   -2.6207    0.5573 H   0  0  0  0  0  0  0  0  0  0  0  0
   89.5856    2.5398   -0.3690 H   0  0  0  0  0  0  0  0  0  0  0  0
   91.5065    4.4338   -0.3744 H   0  0  0  0  0  0  0  0  0  0  0  0
   92.6440    4.9638    1.9357 H   0  0  0  0  0  0  0  0  0  0  0  0
   92.7035    8.5175    2.0823 H   0  0  0  0  0  0  0  0  0  0  0  0
   94.7709    9.3080   -0.1537 H   0  0  0  0  0  0  0  0  0  0  0  0
   96.2375    7.1391   -1.9015 H   0  0  0  0  0  0  0  0  0  0  0  0
   95.5311    5.0158   -1.2554 H   0  0  0  0  0  0  0  0  0  0  0  0
   96.5980    4.2926    1.1163 H   0  0  0  0  0  0  0  0  0  0  0  0
   98.4619    2.3400    1.0819 H   0  0  0  0  0  0  0  0  0  0  0  0
   54.7641   -0.0715    0.1490 C   0  0  0  0  0  0  0  0  0  0  0  0
   53.5345   -0.0704    0.1506 C   0  0  0  0  0  0  0  0  0  0  0  0
   52.1919   -0.0644    0.1425 C   0  0  0  0  0  0  0  0  0  0  0  0
   50.9673   -0.0546    0.1259 C   0  0  0  0  0  0  0  0  0  0  0  0
   56.1064   -0.0698    0.1358 C   0  0  0  0  0  0  0  0  0  0  0  0
   57.3314   -0.0647    0.1164 C   0  0  0  0  0  0  0  0  0  0  0  0
   70.7099   -0.0173    0.0873 C   0  0  0  0  0  0  0  0  0  0  0  0
   69.4801   -0.0231    0.0844 C   0  0  0  0  0  0  0  0  0  0  0  0
   68.1380   -0.0297    0.0762 C   0  0  0  0  0  0  0  0  0  0  0  0
   66.9128   -0.0365    0.0620 C   0  0  0  0  0  0  0  0  0  0  0  0
   72.0520   -0.0110    0.0829 C   0  0  0  0  0  0  0  0  0  0  0  0
   73.2773   -0.0059    0.0734 C   0  0  0  0  0  0  0  0  0  0  0  0
   86.6531   -0.0078    0.2357 C   0  0  0  0  0  0  0  0  0  0  0  0
   85.4234   -0.0036    0.2323 C   0  0  0  0  0  0  0  0  0  0  0  0
   84.0814   -0.0010    0.2137 C   0  0  0  0  0  0  0  0  0  0  0  0
   82.8565   -0.0004    0.1847 C   0  0  0  0  0  0  0  0  0  0  0  0
   87.9955   -0.0153    0.2246 C   0  0  0  0  0  0  0  0  0  0  0  0
   89.2202   -0.0237    0.2015 C   0  0  0  0  0  0  0  0  0  0  0  0
   62.1219   -0.0467    0.0256 Co  0  0  0  0  0  0  0  0  0  0  0  0
   58.7314   -0.0582    0.0833 C   0  0  0  0  0  0  0  0  0  0  0  0
   59.4187    1.1005    0.4609 C   0  0  0  0  0  0  0  0  0  0  0  0
   58.7777    2.2905    0.9202 C   0  0  0  0  0  0  0  0  0  0  0  0
   59.7287    3.2574    0.9473 C   0  0  0  0  0  0  0  0  0  0  0  0
   60.9451    2.6523    0.4977 C   0  0  0  0  0  0  0  0  0  0  0  0
   60.7550    1.3104    0.2685 N   0  0  0  0  0  0  0  0  0  0  0  0
   62.1128    3.3492    0.2096 C   0  0  0  0  0  0  0  0  0  0  0  0
   62.1008    4.8268    0.2749 C   0  0  0  0  0  0  0  0  0  0  0  0
   62.9958    5.5065    1.1031 C   0  0  0  0  0  0  0  0  0  0  0  0
   62.9938    6.8966    1.1723 C   0  0  0  0  0  0  0  0  0  0  0  0
   63.8523    7.5685    1.9824 O   0  0  0  0  0  0  0  0  0  0  0  0
   62.0915    7.6289    0.3932 C   0  0  0  0  0  0  0  0  0  0  0  0
   62.0712    8.9855    0.4316 O   0  0  0  0  0  0  0  0  0  0  0  0
   61.2000    6.9415   -0.4355 C   0  0  0  0  0  0  0  0  0  0  0  0
   60.3465    7.7186   -1.1747 O   0  0  0  0  0  0  0  0  0  0  0  0
   61.1919    5.5555   -0.4959 C   0  0  0  0  0  0  0  0  0  0  0  0
   63.2896    2.6949   -0.1298 C   0  0  0  0  0  0  0  0  0  0  0  0
   64.5167    3.3522   -0.4643 C   0  0  0  0  0  0  0  0  0  0  0  0
   65.4781    2.3961   -0.4878 C   0  0  0  0  0  0  0  0  0  0  0  0
   63.4856    1.3356   -0.0403 N   0  0  0  0  0  0  0  0  0  0  0  0
   64.8308    1.1586   -0.1909 C   0  0  0  0  0  0  0  0  0  0  0  0
   65.5127   -0.0412    0.0420 C   0  0  0  0  0  0  0  0  0  0  0  0
   64.8300   -1.2466    0.2360 C   0  0  0  0  0  0  0  0  0  0  0  0
   65.4772   -2.4934    0.4937 C   0  0  0  0  0  0  0  0  0  0  0  0
   64.5249   -3.4529    0.3908 C   0  0  0  0  0  0  0  0  0  0  0  0
   63.3010   -2.7862    0.0635 C   0  0  0  0  0  0  0  0  0  0  0  0
   63.4902   -1.4243    0.0389 N   0  0  0  0  0  0  0  0  0  0  0  0
   62.1276   -3.4302   -0.3061 C   0  0  0  0  0  0  0  0  0  0  0  0
   62.1314   -4.9039   -0.4520 C   0  0  0  0  0  0  0  0  0  0  0  0
   63.0136   -5.5137   -1.3454 C   0  0  0  0  0  0  0  0  0  0  0  0
   63.0052   -6.8953   -1.4941 C   0  0  0  0  0  0  0  0  0  0  0  0
   63.8420   -7.4982   -2.3709 O   0  0  0  0  0  0  0  0  0  0  0  0
   62.1203   -7.6701   -0.7409 C   0  0  0  0  0  0  0  0  0  0  0  0
   62.1481   -9.0447   -0.9187 O   0  0  0  0  0  0  0  0  0  0  0  0
   61.2675   -7.0657    0.1809 C   0  0  0  0  0  0  0  0  0  0  0  0
   60.4259   -7.8198    0.9452 O   0  0  0  0  0  0  0  0  0  0  0  0
   61.2594   -5.6816    0.3111 C   0  0  0  0  0  0  0  0  0  0  0  0
   60.9481   -2.7324   -0.5307 C   0  0  0  0  0  0  0  0  0  0  0  0
   59.7162   -3.3337   -0.9434 C   0  0  0  0  0  0  0  0  0  0  0  0
   58.7566   -2.3842   -0.8170 C   0  0  0  0  0  0  0  0  0  0  0  0
   59.4090   -1.2043   -0.3468 C   0  0  0  0  0  0  0  0  0  0  0  0
   60.7561   -1.4018   -0.2393 N   0  0  0  0  0  0  0  0  0  0  0  0
   57.7326    2.3648    1.1741 H   0  0  0  0  0  0  0  0  0  0  0  0
   59.6251    4.2881    1.2451 H   0  0  0  0  0  0  0  0  0  0  0  0
   63.6888    4.9490    1.7230 H   0  0  0  0  0  0  0  0  0  0  0  0
   64.4216    6.9591    2.4703 H   0  0  0  0  0  0  0  0  0  0  0  0
   61.3809    9.2967   -0.1761 H   0  0  0  0  0  0  0  0  0  0  0  0
   59.7673    7.1716   -1.7210 H   0  0  0  0  0  0  0  0  0  0  0  0
   60.5011    5.0467   -1.1578 H   0  0  0  0  0  0  0  0  0  0  0  0
   64.6213    4.4084   -0.6513 H   0  0  0  0  0  0  0  0  0  0  0  0
   66.5326    2.5046   -0.6843 H   0  0  0  0  0  0  0  0  0  0  0  0
   66.5271   -2.6050    0.7119 H   0  0  0  0  0  0  0  0  0  0  0  0
   64.6319   -4.5174    0.5214 H   0  0  0  0  0  0  0  0  0  0  0  0
   63.6875   -4.9201   -1.9495 H   0  0  0  0  0  0  0  0  0  0  0  0
   63.6871   -8.4569   -2.3315 H   0  0  0  0  0  0  0  0  0  0  0  0
   61.2537   -9.4098   -0.9093 H   0  0  0  0  0  0  0  0  0  0  0  0
   60.7220   -8.7406    0.9658 H   0  0  0  0  0  0  0  0  0  0  0  0
   60.5938   -5.2234    1.0310 H   0  0  0  0  0  0  0  0  0  0  0  0
   59.6080   -4.3525   -1.2780 H   0  0  0  0  0  0  0  0  0  0  0  0
   57.6996   -2.4627   -1.0140 H   0  0  0  0  0  0  0  0  0  0  0  0
   78.0677    0.0030    0.0576 Co  0  0  0  0  0  0  0  0  0  0  0  0
   74.6774   -0.0007    0.0561 C   0  0  0  0  0  0  0  0  0  0  0  0
   75.3609    1.1684    0.4078 C   0  0  0  0  0  0  0  0  0  0  0  0
   74.7150    2.3708    0.8267 C   0  0  0  0  0  0  0  0  0  0  0  0
   75.6685    3.3352    0.8495 C   0  0  0  0  0  0  0  0  0  0  0  0
   76.8914    2.7163    0.4374 C   0  0  0  0  0  0  0  0  0  0  0  0
   76.7005    1.3701    0.2338 N   0  0  0  0  0  0  0  0  0  0  0  0
   78.0672    3.4023    0.1586 C   0  0  0  0  0  0  0  0  0  0  0  0
   78.0612    4.8807    0.2030 C   0  0  0  0  0  0  0  0  0  0  0  0
   78.9380    5.5659    1.0459 C   0  0  0  0  0  0  0  0  0  0  0  0
   78.9349    6.9564    1.1054 C   0  0  0  0  0  0  0  0  0  0  0  0
   79.7730    7.6340    1.9317 O   0  0  0  0  0  0  0  0  0  0  0  0
   78.0515    7.6834    0.3001 C   0  0  0  0  0  0  0  0  0  0  0  0
   78.0293    9.0401    0.3303 O   0  0  0  0  0  0  0  0  0  0  0  0
   77.1806    6.9905   -0.5458 C   0  0  0  0  0  0  0  0  0  0  0  0
   76.3458    7.7626   -1.3110 O   0  0  0  0  0  0  0  0  0  0  0  0
   77.1724    5.6040   -0.5957 C   0  0  0  0  0  0  0  0  0  0  0  0
   79.2478    2.7366   -0.1453 C   0  0  0  0  0  0  0  0  0  0  0  0
   80.4830    3.3824   -0.4713 C   0  0  0  0  0  0  0  0  0  0  0  0
   81.4410    2.4225   -0.4575 C   0  0  0  0  0  0  0  0  0  0  0  0
   79.4366    1.3791   -0.0235 N   0  0  0  0  0  0  0  0  0  0  0  0
   80.7841    1.1942   -0.1444 C   0  0  0  0  0  0  0  0  0  0  0  0
   81.4570    0.0003    0.1398 C   0  0  0  0  0  0  0  0  0  0  0  0
   80.7654   -1.1967    0.3545 C   0  0  0  0  0  0  0  0  0  0  0  0
   81.4018   -2.4398    0.6523 C   0  0  0  0  0  0  0  0  0  0  0  0
   80.4513   -3.3998    0.5350 C   0  0  0  0  0  0  0  0  0  0  0  0
   79.2390   -2.7365    0.1624 C   0  0  0  0  0  0  0  0  0  0  0  0
   79.4311   -1.3761    0.1221 N   0  0  0  0  0  0  0  0  0  0  0  0
   78.0740   -3.3845   -0.2293 C   0  0  0  0  0  0  0  0  0  0  0  0
   78.0860   -4.8585   -0.3707 C   0  0  0  0  0  0  0  0  0  0  0  0
   78.9923   -5.4640   -1.2428 C   0  0  0  0  0  0  0  0  0  0  0  0
   78.9919   -6.8454   -1.3947 C   0  0  0  0  0  0  0  0  0  0  0  0
   79.8519   -7.4435   -2.2516 O   0  0  0  0  0  0  0  0  0  0  0  0
   78.0902   -7.6239   -0.6658 C   0  0  0  0  0  0  0  0  0  0  0  0
   78.1248   -8.9986   -0.8451 O   0  0  0  0  0  0  0  0  0  0  0  0
   77.2140   -7.0240    0.2369 C   0  0  0  0  0  0  0  0  0  0  0  0
   76.3572   -7.7831    0.9786 O   0  0  0  0  0  0  0  0  0  0  0  0
   77.1987   -5.6403    0.3703 C   0  0  0  0  0  0  0  0  0  0  0  0
   76.8992   -2.6896   -0.4816 C   0  0  0  0  0  0  0  0  0  0  0  0
   75.6716   -3.2959   -0.9007 C   0  0  0  0  0  0  0  0  0  0  0  0
   74.7106   -2.3456   -0.7942 C   0  0  0  0  0  0  0  0  0  0  0  0
   75.3585   -1.1590   -0.3342 C   0  0  0  0  0  0  0  0  0  0  0  0
   76.7040   -1.3546   -0.2103 N   0  0  0  0  0  0  0  0  0  0  0  0
   73.6657    2.4538    1.0599 H   0  0  0  0  0  0  0  0  0  0  0  0
   75.5625    4.3727    1.1217 H   0  0  0  0  0  0  0  0  0  0  0  0
   79.6157    5.0124    1.6861 H   0  0  0  0  0  0  0  0  0  0  0  0
   80.3311    7.0286    2.4373 H   0  0  0  0  0  0  0  0  0  0  0  0
   77.3531    9.3475   -0.2950 H   0  0  0  0  0  0  0  0  0  0  0  0
   75.7803    7.2121   -1.8681 H   0  0  0  0  0  0  0  0  0  0  0  0
   76.4968    5.0906   -1.2697 H   0  0  0  0  0  0  0  0  0  0  0  0
   80.5946    4.4343   -0.6778 H   0  0  0  0  0  0  0  0  0  0  0  0
   82.4993    2.5231   -0.6367 H   0  0  0  0  0  0  0  0  0  0  0  0
   82.4446   -2.5497    0.9029 H   0  0  0  0  0  0  0  0  0  0  0  0
   80.5522   -4.4623    0.6851 H   0  0  0  0  0  0  0  0  0  0  0  0
   79.6792   -4.8671   -1.8286 H   0  0  0  0  0  0  0  0  0  0  0  0
   79.7006   -8.4030   -2.2175 H   0  0  0  0  0  0  0  0  0  0  0  0
   77.2306   -9.3622   -0.8828 H   0  0  0  0  0  0  0  0  0  0  0  0
   76.6521   -8.7046    0.9945 H   0  0  0  0  0  0  0  0  0  0  0  0
   76.5152   -5.1857    1.0757 H   0  0  0  0  0  0  0  0  0  0  0  0
   75.5665   -4.3184   -1.2246 H   0  0  0  0  0  0  0  0  0  0  0  0
   73.6556   -2.4266   -1.0011 H   0  0  0  0  0  0  0  0  0  0  0  0
  2  3  4  0  0  0  0
  3  4  1  0  0  0  0
  4  5  2  0  0  0  0
  5  6  4  0  0  0  0
  1  7  1  0  0  0  0
  3  7  4  0  0  0  0
  6  7  4  0  0  0  0
  6  8  4  0  0  0  0
  8  9  1  0  0  0  0
  9 10  4  0  0  0  0
 10 11  4  0  0  0  0
 11 12  1  0  0  0  0
 11 13  4  0  0  0  0
 13 14  1  0  0  0  0
 13 15  4  0  0  0  0
 15 16  1  0  0  0  0
  9 17  4  0  0  0  0
 15 17  4  0  0  0  0
  8 18  4  0  0  0  0
 18 19  4  0  0  0  0
 19 20  2  0  0  0  0
  1 21  1  0  0  0  0
 18 21  4  0  0  0  0
 20 22  4  0  0  0  0
 21 22  4  0  0  0  0
 22 23  4  0  0  0  0
 23 24  4  0  0  0  0
 24 25  4  0  0  0  0
 25 26  2  0  0  0  0
 26 27  4  0  0  0  0
  1 28  1  0  0  0  0
 24 28  4  0  0  0  0
 27 28  4  0  0  0  0
 27 29  4  0  0  0  0
 29 30  1  0  0  0  0
 30 31  4  0  0  0  0
 31 32  4  0  0  0  0
 32 33  1  0  0  0  0
 32 34  4  0  0  0  0
 34 35  1  0  0  0  0
 34 36  4  0  0  0  0
 36 37  1  0  0  0  0
 30 38  4  0  0  0  0
 36 38  4  0  0  0  0
 29 39  4  0  0  0  0
 39 40  4  0  0  0  0
 40 41  2  0  0  0  0
  2 42  4  0  0  0  0
 41 42  1  0  0  0  0
  1 43  1  0  0  0  0
 39 43  4  0  0  0  0
 42 43  4  0  0  0  0
  2 44  1  0  0  0  0
  4 45  1  0  0  0  0
  5 46  1  0  0  0  0
 10 47  1  0  0  0  0
 12 48  1  0  0  0  0
 14 49  1  0  0  0  0
 16 50  1  0  0  0  0
 17 51  1  0  0  0  0
 19 52  1  0  0  0  0
 20 53  1  0  0  0  0
 25 54  1  0  0  0  0
 26 55  1  0  0  0  0
 31 56  1  0  0  0  0
 33 57  1  0  0  0  0
 35 58  1  0  0  0  0
 37 59  1  0  0  0  0
 38 60  1  0  0  0  0
 40 61  1  0  0  0  0
 41 62  1  0  0  0  0
 64 65  4  0  0  0  0
 65 66  1  0  0  0  0
 66 67  2  0  0  0  0
 67 68  4  0  0  0  0
 63 69  1  0  0  0  0
 65 69  4  0  0  0  0
 68 69  4  0  0  0  0
 68 70  4  0  0  0  0
 70 71  1  0  0  0  0
 71 72  4  0  0  0  0
 72 73  4  0  0  0  0
 73 74  1  0  0  0  0
 73 75  4  0  0  0  0
 75 76  1  0  0  0  0
 75 77  4  0  0  0  0
 77 78  1  0  0  0  0
 71 79  4  0  0  0  0
 77 79  4  0  0  0  0
 70 80  4  0  0  0  0
 80 81  4  0  0  0  0
 81 82  2  0  0  0  0
 63 83  1  0  0  0  0
 80 83  4  0  0  0  0
 82 84  4  0  0  0  0
 83 84  4  0  0  0  0
 84 85  4  0  0  0  0
 85 86  4  0  0  0  0
 86 87  4  0  0  0  0
 87 88  2  0  0  0  0
 88 89  4  0  0  0  0
 63 90  1  0  0  0  0
 86 90  4  0  0  0  0
 89 90  4  0  0  0  0
 89 91  4  0  0  0  0
 91 92  1  0  0  0  0
 92 93  4  0  0  0  0
 93 94  4  0  0  0  0
 94 95  1  0  0  0  0
 94 96  4  0  0  0  0
 96 97  1  0  0  0  0
 96 98  4  0  0  0  0
 98 99  1  0  0  0  0
 92100  4  0  0  0  0
 98100  4  0  0  0  0
 91101  4  0  0  0  0
101102  4  0  0  0  0
102103  2  0  0  0  0
 64104  4  0  0  0  0
103104  1  0  0  0  0
 63105  1  0  0  0  0
101105  4  0  0  0  0
104105  4  0  0  0  0
 64106  1  0  0  0  0
 66107  1  0  0  0  0
 67108  1  0  0  0  0
 72109  1  0  0  0  0
 74110  1  0  0  0  0
 76111  1  0  0  0  0
 78112  1  0  0  0  0
 79113  1  0  0  0  0
 81114  1  0  0  0  0
 82115  1  0  0  0  0
 87116  1  0  0  0  0
 88117  1  0  0  0  0
 93118  1  0  0  0  0
 95119  1  0  0  0  0
 97120  1  0  0  0  0
 99121  1  0  0  0  0
100122  1  0  0  0  0
102123  1  0  0  0  0
103124  1  0  0  0  0
125126  3  0  0  0  0
126127  4  0  0  0  0
 23128  4  0  0  0  0
127128  3  0  0  0  0
125129  4  0  0  0  0
129130  3  0  0  0  0
131132  3  0  0  0  0
132133  4  0  0  0  0
133134  3  0  0  0  0
131135  4  0  0  0  0
135136  3  0  0  0  0
137138  3  0  0  0  0
138139  4  0  0  0  0
139140  3  0  0  0  0
137141  4  0  0  0  0
 85142  4  0  0  0  0
141142  3  0  0  0  0
130144  4  0  0  0  0
144145  4  0  0  0  0
145146  4  0  0  0  0
146147  2  0  0  0  0
147148  4  0  0  0  0
143149  1  0  0  0  0
145149  4  0  0  0  0
148149  4  0  0  0  0
148150  4  0  0  0  0
150151  1  0  0  0  0
151152  4  0  0  0  0
152153  4  0  0  0  0
153154  1  0  0  0  0
153155  4  0  0  0  0
155156  1  0  0  0  0
155157  4  0  0  0  0
157158  1  0  0  0  0
151159  4  0  0  0  0
157159  4  0  0  0  0
150160  4  0  0  0  0
160161  4  0  0  0  0
161162  2  0  0  0  0
143163  1  0  0  0  0
160163  4  0  0  0  0
162164  4  0  0  0  0
163164  4  0  0  0  0
134165  4  0  0  0  0
164165  4  0  0  0  0
165166  4  0  0  0  0
166167  4  0  0  0  0
167168  2  0  0  0  0
168169  4  0  0  0  0
143170  1  0  0  0  0
166170  4  0  0  0  0
169170  4  0  0  0  0
169171  4  0  0  0  0
171172  1  0  0  0  0
172173  4  0  0  0  0
173174  4  0  0  0  0
174175  1  0  0  0  0
174176  4  0  0  0  0
176177  1  0  0  0  0
176178  4  0  0  0  0
178179  1  0  0  0  0
172180  4  0  0  0  0
178180  4  0  0  0  0
171181  4  0  0  0  0
181182  4  0  0  0  0
182183  2  0  0  0  0
144184  4  0  0  0  0
183184  4  0  0  0  0
143185  1  0  0  0  0
181185  4  0  0  0  0
184185  4  0  0  0  0
146186  1  0  0  0  0
147187  1  0  0  0  0
152188  1  0  0  0  0
154189  1  0  0  0  0
156190  1  0  0  0  0
158191  1  0  0  0  0
159192  1  0  0  0  0
161193  1  0  0  0  0
162194  1  0  0  0  0
167195  1  0  0  0  0
168196  1  0  0  0  0
173197  1  0  0  0  0
175198  1  0  0  0  0
177199  1  0  0  0  0
179200  1  0  0  0  0
180201  1  0  0  0  0
182202  1  0  0  0  0
183203  1  0  0  0  0
136205  4  0  0  0  0
205206  4  0  0  0  0
206207  4  0  0  0  0
207208  2  0  0  0  0
208209  4  0  0  0  0
204210  1  0  0  0  0
206210  4  0  0  0  0
209210  4  0  0  0  0
209211  4  0  0  0  0
211212  1  0  0  0  0
212213  4  0  0  0  0
213214  4  0  0  0  0
214215  1  0  0  0  0
214216  4  0  0  0  0
216217  1  0  0  0  0
216218  4  0  0  0  0
218219  1  0  0  0  0
212220  4  0  0  0  0
218220  4  0  0  0  0
211221  4  0  0  0  0
221222  4  0  0  0  0
222223  2  0  0  0  0
204224  1  0  0  0  0
221224  4  0  0  0  0
223225  4  0  0  0  0
224225  4  0  0  0  0
140226  4  0  0  0  0
225226  4  0  0  0  0
226227  4  0  0  0  0
227228  4  0  0  0  0
228229  2  0  0  0  0
229230  4  0  0  0  0
204231  1  0  0  0  0
227231  4  0  0  0  0
230231  4  0  0  0  0
230232  4  0  0  0  0
232233  1  0  0  0  0
233234  4  0  0  0  0
234235  4  0  0  0  0
235236  1  0  0  0  0
235237  4  0  0  0  0
237238  1  0  0  0  0
237239  4  0  0  0  0
239240  1  0  0  0  0
233241  4  0  0  0  0
239241  4  0  0  0  0
232242  4  0  0  0  0
242243  4  0  0  0  0
243244  2  0  0  0  0
205245  4  0  0  0  0
244245  4  0  0  0  0
204246  1  0  0  0  0
242246  4  0  0  0  0
245246  4  0  0  0  0
207247  1  0  0  0  0
208248  1  0  0  0  0
213249  1  0  0  0  0
215250  1  0  0  0  0
217251  1  0  0  0  0
219252  1  0  0  0  0
220253  1  0  0  0  0
222254  1  0  0  0  0
223255  1  0  0  0  0
228256  1  0  0  0  0
229257  1  0  0  0  0
234258  1  0  0  0  0
236259  1  0  0  0  0
238260  1  0  0  0  0
240261  1  0  0  0  0
241262  1  0  0  0  0
243263  1  0  0  0  0
244264  1  0  0  0  0
M  END
