 xtb: 6.5.1 (b24c23e)
          07302200503D

242281  0     0  0            999 V2000
   41.8831    0.3939    0.1979 Co  0  0  0  0  0  0  0  0  0  0  0  0
   38.5172    0.3173   -0.0173 C   0  0  0  0  0  0  0  0  0  0  0  0
   39.1769   -0.8348    0.3543 C   0  0  0  0  0  0  0  0  0  0  0  0
   38.5184   -2.0585    0.6965 C   0  0  0  0  0  0  0  0  0  0  0  0
   39.4865   -2.9958    0.8297 C   0  0  0  0  0  0  0  0  0  0  0  0
   40.7340   -2.3467    0.5482 C   0  0  0  0  0  0  0  0  0  0  0  0
   40.5380   -1.0069    0.3275 N   0  0  0  0  0  0  0  0  0  0  0  0
   41.9431   -3.0110    0.3906 C   0  0  0  0  0  0  0  0  0  0  0  0
   41.9735   -4.4894    0.4644 C   0  0  0  0  0  0  0  0  0  0  0  0
   41.2446   -5.2495   -0.3688 C   0  0  0  0  0  0  0  0  0  0  0  0
   41.2495   -6.7536   -0.3129 C   0  0  0  0  0  0  0  0  0  0  0  0
   42.3581   -7.2537    0.5023 N   0  0  0  0  0  0  0  0  0  0  0  0
   42.9579   -6.4651    1.4447 C   0  0  0  0  0  0  0  0  0  0  0  0
   42.8321   -5.1249    1.4511 C   0  0  0  0  0  0  0  0  0  0  0  0
   43.1256   -2.3269    0.1469 C   0  0  0  0  0  0  0  0  0  0  0  0
   44.3851   -2.9629   -0.0976 C   0  0  0  0  0  0  0  0  0  0  0  0
   45.3194   -1.9821   -0.1285 C   0  0  0  0  0  0  0  0  0  0  0  0
   43.2807   -0.9612    0.2018 N   0  0  0  0  0  0  0  0  0  0  0  0
   44.6276   -0.7516    0.0922 C   0  0  0  0  0  0  0  0  0  0  0  0
   45.2730    0.4671    0.3086 C   0  0  0  0  0  0  0  0  0  0  0  0
   44.5624    1.6525    0.5086 C   0  0  0  0  0  0  0  0  0  0  0  0
   45.1826    2.9024    0.8155 C   0  0  0  0  0  0  0  0  0  0  0  0
   44.2055    3.8401    0.7757 C   0  0  0  0  0  0  0  0  0  0  0  0
   42.9943    3.1606    0.4260 C   0  0  0  0  0  0  0  0  0  0  0  0
   43.2160    1.8058    0.3289 N   0  0  0  0  0  0  0  0  0  0  0  0
   41.8066    3.8026    0.1068 C   0  0  0  0  0  0  0  0  0  0  0  0
   41.7691    5.2826    0.0929 C   0  0  0  0  0  0  0  0  0  0  0  0
   40.9220    5.9699    0.8759 C   0  0  0  0  0  0  0  0  0  0  0  0
   40.8533    7.4736    0.8768 C   0  0  0  0  0  0  0  0  0  0  0  0
   42.0125    8.0609    0.2018 N   0  0  0  0  0  0  0  0  0  0  0  0
   42.7394    7.3441   -0.7085 C   0  0  0  0  0  0  0  0  0  0  0  0
   42.6843    6.0011   -0.7796 C   0  0  0  0  0  0  0  0  0  0  0  0
   40.6548    3.0931   -0.2083 C   0  0  0  0  0  0  0  0  0  0  0  0
   39.4238    3.6967   -0.6283 C   0  0  0  0  0  0  0  0  0  0  0  0
   38.4975    2.7099   -0.6700 C   0  0  0  0  0  0  0  0  0  0  0  0
   39.1651    1.5047   -0.2820 C   0  0  0  0  0  0  0  0  0  0  0  0
   40.4999    1.7383   -0.0635 N   0  0  0  0  0  0  0  0  0  0  0  0
   37.4364    0.2912   -0.0931 H   0  0  0  0  0  0  0  0  0  0  0  0
   37.4516   -2.1670    0.8124 H   0  0  0  0  0  0  0  0  0  0  0  0
   39.3788   -4.0362    1.0909 H   0  0  0  0  0  0  0  0  0  0  0  0
   40.6034   -4.8120   -1.1251 H   0  0  0  0  0  0  0  0  0  0  0  0
   41.3544   -7.1699   -1.3246 H   0  0  0  0  0  0  0  0  0  0  0  0
   40.2889   -7.1230    0.0916 H   0  0  0  0  0  0  0  0  0  0  0  0
   42.3224   -8.2443    0.6918 H   0  0  0  0  0  0  0  0  0  0  0  0
   43.6016   -6.9957    2.1389 H   0  0  0  0  0  0  0  0  0  0  0  0
   43.3510   -4.5156    2.1773 H   0  0  0  0  0  0  0  0  0  0  0  0
   44.5250   -4.0242   -0.2245 H   0  0  0  0  0  0  0  0  0  0  0  0
   46.3841   -2.0679   -0.2752 H   0  0  0  0  0  0  0  0  0  0  0  0
   46.2320    3.0292    1.0280 H   0  0  0  0  0  0  0  0  0  0  0  0
   44.2876    4.8996    0.9567 H   0  0  0  0  0  0  0  0  0  0  0  0
   40.2322    5.4696    1.5456 H   0  0  0  0  0  0  0  0  0  0  0  0
   40.8316    7.8512    1.9085 H   0  0  0  0  0  0  0  0  0  0  0  0
   39.9213    7.8127    0.3875 H   0  0  0  0  0  0  0  0  0  0  0  0
   41.9432    9.0557    0.0467 H   0  0  0  0  0  0  0  0  0  0  0  0
   43.4187    7.9348   -1.3148 H   0  0  0  0  0  0  0  0  0  0  0  0
   43.2999    5.4500   -1.4762 H   0  0  0  0  0  0  0  0  0  0  0  0
   39.2984    4.7422   -0.8595 H   0  0  0  0  0  0  0  0  0  0  0  0
   37.4520    2.7741   -0.9273 H   0  0  0  0  0  0  0  0  0  0  0  0
   81.9505    0.1678    0.1594 Co  0  0  0  0  0  0  0  0  0  0  0  0
   85.3178    0.0961    0.1122 C   0  0  0  0  0  0  0  0  0  0  0  0
   84.6897    1.2736    0.4584 C   0  0  0  0  0  0  0  0  0  0  0  0
   85.3779    2.4710    0.8347 C   0  0  0  0  0  0  0  0  0  0  0  0
   84.4481    3.4545    0.8826 C   0  0  0  0  0  0  0  0  0  0  0  0
   83.1938    2.8585    0.5247 C   0  0  0  0  0  0  0  0  0  0  0  0
   83.3427    1.5079    0.3377 N   0  0  0  0  0  0  0  0  0  0  0  0
   82.0259    3.5699    0.2812 C   0  0  0  0  0  0  0  0  0  0  0  0
   82.0565    5.0491    0.3246 C   0  0  0  0  0  0  0  0  0  0  0  0
   82.8698    5.7598   -0.4733 C   0  0  0  0  0  0  0  0  0  0  0  0
   82.9329    7.2633   -0.4404 C   0  0  0  0  0  0  0  0  0  0  0  0
   81.8059    7.8298    0.3032 N   0  0  0  0  0  0  0  0  0  0  0  0
   81.1144    7.0857    1.2188 C   0  0  0  0  0  0  0  0  0  0  0  0
   81.1726    5.7413    1.2491 C   0  0  0  0  0  0  0  0  0  0  0  0
   80.8269    2.9274    0.0056 C   0  0  0  0  0  0  0  0  0  0  0  0
   79.5990    3.6017   -0.2919 C   0  0  0  0  0  0  0  0  0  0  0  0
   78.6240    2.6605   -0.2862 C   0  0  0  0  0  0  0  0  0  0  0  0
   80.6139    1.5726    0.1123 N   0  0  0  0  0  0  0  0  0  0  0  0
   79.2602    1.4136    0.0007 C   0  0  0  0  0  0  0  0  0  0  0  0
   78.5682    0.2367    0.2938 C   0  0  0  0  0  0  0  0  0  0  0  0
   79.2321   -0.9719    0.5078 C   0  0  0  0  0  0  0  0  0  0  0  0
   78.5673   -2.2002    0.8101 C   0  0  0  0  0  0  0  0  0  0  0  0
   79.4951   -3.1815    0.6966 C   0  0  0  0  0  0  0  0  0  0  0  0
   80.7242   -2.5483    0.3235 C   0  0  0  0  0  0  0  0  0  0  0  0
   80.5636   -1.1837    0.2758 N   0  0  0  0  0  0  0  0  0  0  0  0
   81.8763   -3.2303   -0.0437 C   0  0  0  0  0  0  0  0  0  0  0  0
   81.8363   -4.7071   -0.1355 C   0  0  0  0  0  0  0  0  0  0  0  0
   82.6518   -5.4813    0.5985 C   0  0  0  0  0  0  0  0  0  0  0  0
   82.6413   -6.9841    0.5148 C   0  0  0  0  0  0  0  0  0  0  0  0
   81.4536   -7.4720   -0.1889 N   0  0  0  0  0  0  0  0  0  0  0  0
   80.7525   -6.6661   -1.0424 C   0  0  0  0  0  0  0  0  0  0  0  0
   80.8745   -5.3255   -1.0339 C   0  0  0  0  0  0  0  0  0  0  0  0
   83.0635   -2.5621   -0.3132 C   0  0  0  0  0  0  0  0  0  0  0  0
   84.2808   -3.2017   -0.7209 C   0  0  0  0  0  0  0  0  0  0  0  0
   85.2564   -2.2645   -0.6580 C   0  0  0  0  0  0  0  0  0  0  0  0
   84.6314   -1.0489   -0.2333 C   0  0  0  0  0  0  0  0  0  0  0  0
   83.2783   -1.2255   -0.0897 N   0  0  0  0  0  0  0  0  0  0  0  0
   86.4012    0.0720    0.1022 H   0  0  0  0  0  0  0  0  0  0  0  0
   86.4379    2.5331    1.0244 H   0  0  0  0  0  0  0  0  0  0  0  0
   84.5863    4.4935    1.1348 H   0  0  0  0  0  0  0  0  0  0  0  0
   83.5353    5.2797   -1.1812 H   0  0  0  0  0  0  0  0  0  0  0  0
   82.9046    7.6661   -1.4626 H   0  0  0  0  0  0  0  0  0  0  0  0
   83.8860    7.5944    0.0121 H   0  0  0  0  0  0  0  0  0  0  0  0
   81.8823    8.8195    0.4849 H   0  0  0  0  0  0  0  0  0  0  0  0
   80.4592    7.6577    1.8679 H   0  0  0  0  0  0  0  0  0  0  0  0
   80.5840    5.1698    1.9524 H   0  0  0  0  0  0  0  0  0  0  0  0
   79.5055    4.6605   -0.4714 H   0  0  0  0  0  0  0  0  0  0  0  0
   77.5655    2.7842   -0.4505 H   0  0  0  0  0  0  0  0  0  0  0  0
   77.5216   -2.2846    1.0591 H   0  0  0  0  0  0  0  0  0  0  0  0
   79.3692   -4.2417    0.8456 H   0  0  0  0  0  0  0  0  0  0  0  0
   83.3722   -5.0570    1.2881 H   0  0  0  0  0  0  0  0  0  0  0  0
   82.6439   -7.4198    1.5238 H   0  0  0  0  0  0  0  0  0  0  0  0
   83.5542   -7.3433    0.0045 H   0  0  0  0  0  0  0  0  0  0  0  0
   81.4710   -8.4580   -0.4026 H   0  0  0  0  0  0  0  0  0  0  0  0
   80.0379   -7.1846   -1.6734 H   0  0  0  0  0  0  0  0  0  0  0  0
   80.2780   -4.7035   -1.6860 H   0  0  0  0  0  0  0  0  0  0  0  0
   84.3656   -4.2365   -1.0108 H   0  0  0  0  0  0  0  0  0  0  0  0
   86.3084   -2.3687   -0.8723 H   0  0  0  0  0  0  0  0  0  0  0  0
   47.8985    0.5371    0.3671 C   0  0  0  0  0  0  0  0  0  0  0  0
   46.6774    0.5016    0.3404 C   0  0  0  0  0  0  0  0  0  0  0  0
   49.2477    0.5778    0.4035 C   0  0  0  0  0  0  0  0  0  0  0  0
   50.4685    0.6167    0.4427 C   0  0  0  0  0  0  0  0  0  0  0  0
   61.2680    0.7360    0.6340 C   0  0  0  0  0  0  0  0  0  0  0  0
   60.0451    0.7292    0.6166 C   0  0  0  0  0  0  0  0  0  0  0  0
   62.6154    0.7661    0.6699 C   0  0  0  0  0  0  0  0  0  0  0  0
   63.8367    0.8089    0.7211 C   0  0  0  0  0  0  0  0  0  0  0  0
   74.6010    0.4176    0.5301 C   0  0  0  0  0  0  0  0  0  0  0  0
   73.3868    0.5234    0.6133 C   0  0  0  0  0  0  0  0  0  0  0  0
   75.9468    0.3307    0.4444 C   0  0  0  0  0  0  0  0  0  0  0  0
   77.1647    0.2756    0.3714 C   0  0  0  0  0  0  0  0  0  0  0  0
   55.2547    0.7608    0.6194 Co  0  0  0  0  0  0  0  0  0  0  0  0
   51.8706    0.6623    0.4979 C   0  0  0  0  0  0  0  0  0  0  0  0
   52.5400    1.7644   -0.0437 C   0  0  0  0  0  0  0  0  0  0  0  0
   51.8847    2.8996   -0.6099 C   0  0  0  0  0  0  0  0  0  0  0  0
   52.8454    3.6397   -1.2174 C   0  0  0  0  0  0  0  0  0  0  0  0
   54.0812    2.9397   -1.0366 C   0  0  0  0  0  0  0  0  0  0  0  0
   53.8891    1.8293   -0.2483 N   0  0  0  0  0  0  0  0  0  0  0  0
   55.2635    3.2414   -1.7000 C   0  0  0  0  0  0  0  0  0  0  0  0
   55.2700    4.3215   -2.7104 C   0  0  0  0  0  0  0  0  0  0  0  0
   54.4450    4.2904   -3.7704 C   0  0  0  0  0  0  0  0  0  0  0  0
   54.4624    5.3406   -4.8473 C   0  0  0  0  0  0  0  0  0  0  0  0
   55.2265    6.5187   -4.4330 N   0  0  0  0  0  0  0  0  0  0  0  0
   56.1508    6.4517   -3.4283 C   0  0  0  0  0  0  0  0  0  0  0  0
   56.1985    5.4290   -2.5542 C   0  0  0  0  0  0  0  0  0  0  0  0
   56.4373    2.5383   -1.4592 C   0  0  0  0  0  0  0  0  0  0  0  0
   57.6623    2.7343   -2.1734 C   0  0  0  0  0  0  0  0  0  0  0  0
   58.6124    2.0154   -1.5257 C   0  0  0  0  0  0  0  0  0  0  0  0
   56.6231    1.6488   -0.4279 N   0  0  0  0  0  0  0  0  0  0  0  0
   57.9634    1.3813   -0.4225 C   0  0  0  0  0  0  0  0  0  0  0  0
   58.6433    0.7364    0.6150 C   0  0  0  0  0  0  0  0  0  0  0  0
   57.9583    0.1294    1.6737 C   0  0  0  0  0  0  0  0  0  0  0  0
   58.5979   -0.4446    2.8139 C   0  0  0  0  0  0  0  0  0  0  0  0
   57.6318   -1.0807    3.5222 C   0  0  0  0  0  0  0  0  0  0  0  0
   56.4098   -0.9145    2.7947 C   0  0  0  0  0  0  0  0  0  0  0  0
   56.6136   -0.1038    1.7012 N   0  0  0  0  0  0  0  0  0  0  0  0
   55.2349   -1.6068    3.0543 C   0  0  0  0  0  0  0  0  0  0  0  0
   55.2071   -2.6144    4.1362 C   0  0  0  0  0  0  0  0  0  0  0  0
   56.0583   -3.6533    4.1578 C   0  0  0  0  0  0  0  0  0  0  0  0
   56.0544   -4.6846    5.2539 C   0  0  0  0  0  0  0  0  0  0  0  0
   54.8365   -4.6012    6.0623 N   0  0  0  0  0  0  0  0  0  0  0  0
   54.0965   -3.4522    6.1109 C   0  0  0  0  0  0  0  0  0  0  0  0
   54.2124   -2.4789    5.1886 C   0  0  0  0  0  0  0  0  0  0  0  0
   54.0791   -1.3887    2.3127 C   0  0  0  0  0  0  0  0  0  0  0  0
   52.8721   -2.1454    2.4511 C   0  0  0  0  0  0  0  0  0  0  0  0
   51.9290   -1.5182    1.7057 C   0  0  0  0  0  0  0  0  0  0  0  0
   52.5629   -0.3808    1.1178 C   0  0  0  0  0  0  0  0  0  0  0  0
   53.8934   -0.3493    1.4344 N   0  0  0  0  0  0  0  0  0  0  0  0
   50.8252    3.0898   -0.5476 H   0  0  0  0  0  0  0  0  0  0  0  0
   52.7361    4.5723   -1.7467 H   0  0  0  0  0  0  0  0  0  0  0  0
   53.7697    3.4600   -3.9409 H   0  0  0  0  0  0  0  0  0  0  0  0
   54.8881    4.9243   -5.7791 H   0  0  0  0  0  0  0  0  0  0  0  0
   53.4365    5.6611   -5.0778 H   0  0  0  0  0  0  0  0  0  0  0  0
   55.4000    7.1852   -5.1706 H   0  0  0  0  0  0  0  0  0  0  0  0
   56.7927    7.3227   -3.3438 H   0  0  0  0  0  0  0  0  0  0  0  0
   56.8913    5.4323   -1.7249 H   0  0  0  0  0  0  0  0  0  0  0  0
   57.7714    3.3462   -3.0543 H   0  0  0  0  0  0  0  0  0  0  0  0
   59.6623    1.9241   -1.7534 H   0  0  0  0  0  0  0  0  0  0  0  0
   59.6509   -0.3639    3.0318 H   0  0  0  0  0  0  0  0  0  0  0  0
   57.7302   -1.6190    4.4508 H   0  0  0  0  0  0  0  0  0  0  0  0
   56.8006   -3.7986    3.3818 H   0  0  0  0  0  0  0  0  0  0  0  0
   56.9434   -4.5565    5.8990 H   0  0  0  0  0  0  0  0  0  0  0  0
   56.1107   -5.6944    4.8242 H   0  0  0  0  0  0  0  0  0  0  0  0
   54.8517   -5.1685    6.8968 H   0  0  0  0  0  0  0  0  0  0  0  0
   53.3580   -3.4198    6.9055 H   0  0  0  0  0  0  0  0  0  0  0  0
   53.5857   -1.5991    5.2190 H   0  0  0  0  0  0  0  0  0  0  0  0
   52.7692   -3.0380    3.0467 H   0  0  0  0  0  0  0  0  0  0  0  0
   50.8912   -1.7782    1.5716 H   0  0  0  0  0  0  0  0  0  0  0  0
   68.6228    0.9971    0.9139 Co  0  0  0  0  0  0  0  0  0  0  0  0
   65.2351    0.8803    0.7945 C   0  0  0  0  0  0  0  0  0  0  0  0
   65.9058    1.8460    0.0347 C   0  0  0  0  0  0  0  0  0  0  0  0
   65.2417    2.8599   -0.7205 C   0  0  0  0  0  0  0  0  0  0  0  0
   66.2085    3.5695   -1.3527 C   0  0  0  0  0  0  0  0  0  0  0  0
   67.4570    2.9528   -1.0183 C   0  0  0  0  0  0  0  0  0  0  0  0
   67.2587    1.9354   -0.1107 N   0  0  0  0  0  0  0  0  0  0  0  0
   68.6588    3.2237   -1.6540 C   0  0  0  0  0  0  0  0  0  0  0  0
   68.7120    4.2425   -2.7255 C   0  0  0  0  0  0  0  0  0  0  0  0
   67.9541    4.1525   -3.8306 C   0  0  0  0  0  0  0  0  0  0  0  0
   68.0363    5.1474   -4.9564 C   0  0  0  0  0  0  0  0  0  0  0  0
   68.7745    6.3479   -4.5588 N   0  0  0  0  0  0  0  0  0  0  0  0
   69.6424    6.3312   -3.5021 C   0  0  0  0  0  0  0  0  0  0  0  0
   69.6345    5.3563   -2.5743 C   0  0  0  0  0  0  0  0  0  0  0  0
   69.8216    2.5217   -1.3548 C   0  0  0  0  0  0  0  0  0  0  0  0
   71.0288    2.6095   -2.1184 C   0  0  0  0  0  0  0  0  0  0  0  0
   71.9488    1.8411   -1.4855 C   0  0  0  0  0  0  0  0  0  0  0  0
   69.9896    1.6789   -0.2853 N   0  0  0  0  0  0  0  0  0  0  0  0
   71.3061    1.3071   -0.3265 C   0  0  0  0  0  0  0  0  0  0  0  0
   71.9932    0.6769    0.7120 C   0  0  0  0  0  0  0  0  0  0  0  0
   71.3469    0.2844    1.8879 C   0  0  0  0  0  0  0  0  0  0  0  0
   72.0334   -0.1557    3.0598 C   0  0  0  0  0  0  0  0  0  0  0  0
   71.0811   -0.4958    3.9631 C   0  0  0  0  0  0  0  0  0  0  0  0
   69.8162   -0.3062    3.3193 C   0  0  0  0  0  0  0  0  0  0  0  0
   69.9944    0.2387    2.0680 N   0  0  0  0  0  0  0  0  0  0  0  0
   68.6069   -0.7718    3.8166 C   0  0  0  0  0  0  0  0  0  0  0  0
   68.5763   -1.4937    5.1082 C   0  0  0  0  0  0  0  0  0  0  0  0
   69.2942   -2.6098    5.3138 C   0  0  0  0  0  0  0  0  0  0  0  0
   69.2816   -3.3566    6.6205 C   0  0  0  0  0  0  0  0  0  0  0  0
   68.1818   -2.9136    7.4796 N   0  0  0  0  0  0  0  0  0  0  0  0
   67.5869   -1.6955    7.3021 C   0  0  0  0  0  0  0  0  0  0  0  0
   67.7167   -0.9861    6.1656 C   0  0  0  0  0  0  0  0  0  0  0  0
   67.4202   -0.6341    3.1071 C   0  0  0  0  0  0  0  0  0  0  0  0
   66.1888   -1.2646    3.4739 C   0  0  0  0  0  0  0  0  0  0  0  0
   65.2551   -0.8478    2.5841 C   0  0  0  0  0  0  0  0  0  0  0  0
   65.9147    0.0537    1.6930 C   0  0  0  0  0  0  0  0  0  0  0  0
   67.2484    0.1361    1.9829 N   0  0  0  0  0  0  0  0  0  0  0  0
   64.1739    3.0074   -0.7423 H   0  0  0  0  0  0  0  0  0  0  0  0
   66.0950    4.4254   -1.9978 H   0  0  0  0  0  0  0  0  0  0  0  0
   67.2934    3.3105   -4.0013 H   0  0  0  0  0  0  0  0  0  0  0  0
   68.5164    4.6853   -5.8389 H   0  0  0  0  0  0  0  0  0  0  0  0
   67.0260    5.4532   -5.2633 H   0  0  0  0  0  0  0  0  0  0  0  0
   68.9978    6.9705   -5.3211 H   0  0  0  0  0  0  0  0  0  0  0  0
   70.2838    7.2035   -3.4279 H   0  0  0  0  0  0  0  0  0  0  0  0
   70.2823    5.3978   -1.7104 H   0  0  0  0  0  0  0  0  0  0  0  0
   71.1433    3.1791   -3.0265 H   0  0  0  0  0  0  0  0  0  0  0  0
   72.9778    1.6617   -1.7529 H   0  0  0  0  0  0  0  0  0  0  0  0
   73.1059   -0.1817    3.1682 H   0  0  0  0  0  0  0  0  0  0  0  0
   71.2152   -0.8516    4.9716 H   0  0  0  0  0  0  0  0  0  0  0  0
   69.9288   -3.0300    4.5423 H   0  0  0  0  0  0  0  0  0  0  0  0
   70.2456   -3.2213    7.1447 H   0  0  0  0  0  0  0  0  0  0  0  0
   69.1617   -4.4341    6.4396 H   0  0  0  0  0  0  0  0  0  0  0  0
   68.2197   -3.2705    8.4227 H   0  0  0  0  0  0  0  0  0  0  0  0
   66.9443   -1.3805    8.1179 H   0  0  0  0  0  0  0  0  0  0  0  0
   67.1989   -0.0478    6.0265 H   0  0  0  0  0  0  0  0  0  0  0  0
   66.0677   -1.9438    4.3022 H   0  0  0  0  0  0  0  0  0  0  0  0
   64.2076   -1.0990    2.5369 H   0  0  0  0  0  0  0  0  0  0  0  0
  2  3  4  0  0  0  0
  3  4  1  0  0  0  0
  4  5  2  0  0  0  0
  5  6  4  0  0  0  0
  1  7  1  0  0  0  0
  3  7  4  0  0  0  0
  6  7  4  0  0  0  0
  6  8  4  0  0  0  0
  8  9  1  0  0  0  0
  9 10  2  0  0  0  0
 10 11  1  0  0  0  0
 11 12  1  0  0  0  0
 12 13  1  0  0  0  0
  9 14  1  0  0  0  0
 13 14  2  0  0  0  0
  8 15  4  0  0  0  0
 15 16  4  0  0  0  0
 16 17  2  0  0  0  0
  1 18  1  0  0  0  0
 15 18  4  0  0  0  0
 17 19  4  0  0  0  0
 18 19  4  0  0  0  0
 19 20  4  0  0  0  0
 20 21  4  0  0  0  0
 21 22  4  0  0  0  0
 22 23  2  0  0  0  0
 23 24  4  0  0  0  0
  1 25  1  0  0  0  0
 21 25  4  0  0  0  0
 24 25  4  0  0  0  0
 24 26  4  0  0  0  0
 26 27  1  0  0  0  0
 27 28  2  0  0  0  0
 28 29  1  0  0  0  0
 29 30  1  0  0  0  0
 30 31  1  0  0  0  0
 27 32  1  0  0  0  0
 31 32  2  0  0  0  0
 26 33  4  0  0  0  0
 33 34  4  0  0  0  0
 34 35  2  0  0  0  0
  2 36  4  0  0  0  0
 35 36  1  0  0  0  0
  1 37  1  0  0  0  0
 33 37  4  0  0  0  0
 36 37  4  0  0  0  0
  2 38  1  0  0  0  0
  4 39  1  0  0  0  0
  5 40  1  0  0  0  0
 10 41  1  0  0  0  0
 11 42  1  0  0  0  0
 11 43  1  0  0  0  0
 12 44  1  0  0  0  0
 13 45  1  0  0  0  0
 14 46  1  0  0  0  0
 16 47  1  0  0  0  0
 17 48  1  0  0  0  0
 22 49  1  0  0  0  0
 23 50  1  0  0  0  0
 28 51  1  0  0  0  0
 29 52  1  0  0  0  0
 29 53  1  0  0  0  0
 30 54  1  0  0  0  0
 31 55  1  0  0  0  0
 32 56  1  0  0  0  0
 34 57  1  0  0  0  0
 35 58  1  0  0  0  0
 60 61  4  0  0  0  0
 61 62  1  0  0  0  0
 62 63  2  0  0  0  0
 63 64  4  0  0  0  0
 59 65  1  0  0  0  0
 61 65  4  0  0  0  0
 64 65  4  0  0  0  0
 64 66  4  0  0  0  0
 66 67  1  0  0  0  0
 67 68  2  0  0  0  0
 68 69  1  0  0  0  0
 69 70  1  0  0  0  0
 70 71  1  0  0  0  0
 67 72  1  0  0  0  0
 71 72  2  0  0  0  0
 66 73  4  0  0  0  0
 73 74  4  0  0  0  0
 74 75  2  0  0  0  0
 59 76  1  0  0  0  0
 73 76  4  0  0  0  0
 75 77  4  0  0  0  0
 76 77  4  0  0  0  0
 77 78  4  0  0  0  0
 78 79  4  0  0  0  0
 79 80  4  0  0  0  0
 80 81  2  0  0  0  0
 81 82  4  0  0  0  0
 59 83  1  0  0  0  0
 79 83  4  0  0  0  0
 82 83  4  0  0  0  0
 82 84  4  0  0  0  0
 84 85  1  0  0  0  0
 85 86  2  0  0  0  0
 86 87  1  0  0  0  0
 87 88  1  0  0  0  0
 88 89  1  0  0  0  0
 85 90  1  0  0  0  0
 89 90  2  0  0  0  0
 84 91  4  0  0  0  0
 91 92  4  0  0  0  0
 92 93  2  0  0  0  0
 60 94  4  0  0  0  0
 93 94  1  0  0  0  0
 59 95  1  0  0  0  0
 91 95  4  0  0  0  0
 94 95  4  0  0  0  0
 60 96  1  0  0  0  0
 62 97  1  0  0  0  0
 63 98  1  0  0  0  0
 68 99  1  0  0  0  0
 69100  1  0  0  0  0
 69101  1  0  0  0  0
 70102  1  0  0  0  0
 71103  1  0  0  0  0
 72104  1  0  0  0  0
 74105  1  0  0  0  0
 75106  1  0  0  0  0
 80107  1  0  0  0  0
 81108  1  0  0  0  0
 86109  1  0  0  0  0
 87110  1  0  0  0  0
 87111  1  0  0  0  0
 88112  1  0  0  0  0
 89113  1  0  0  0  0
 90114  1  0  0  0  0
 92115  1  0  0  0  0
 93116  1  0  0  0  0
 20118  4  0  0  0  0
117118  3  0  0  0  0
117119  4  0  0  0  0
119120  3  0  0  0  0
121122  3  0  0  0  0
121123  4  0  0  0  0
123124  3  0  0  0  0
125126  3  0  0  0  0
125127  4  0  0  0  0
 78128  1  0  0  0  0
127128  3  0  0  0  0
120130  4  0  0  0  0
130131  4  0  0  0  0
131132  4  0  0  0  0
132133  2  0  0  0  0
133134  4  0  0  0  0
129135  1  0  0  0  0
131135  4  0  0  0  0
134135  4  0  0  0  0
134136  4  0  0  0  0
136137  1  0  0  0  0
137138  2  0  0  0  0
138139  1  0  0  0  0
139140  1  0  0  0  0
140141  1  0  0  0  0
137142  1  0  0  0  0
141142  2  0  0  0  0
136143  4  0  0  0  0
143144  4  0  0  0  0
144145  2  0  0  0  0
129146  1  0  0  0  0
143146  4  0  0  0  0
145147  4  0  0  0  0
146147  4  0  0  0  0
122148  4  0  0  0  0
147148  4  0  0  0  0
148149  4  0  0  0  0
149150  4  0  0  0  0
150151  2  0  0  0  0
151152  4  0  0  0  0
129153  1  0  0  0  0
149153  4  0  0  0  0
152153  4  0  0  0  0
152154  4  0  0  0  0
154155  1  0  0  0  0
155156  2  0  0  0  0
156157  1  0  0  0  0
157158  1  0  0  0  0
158159  1  0  0  0  0
155160  1  0  0  0  0
159160  2  0  0  0  0
154161  4  0  0  0  0
161162  4  0  0  0  0
162163  2  0  0  0  0
130164  4  0  0  0  0
163164  4  0  0  0  0
129165  1  0  0  0  0
161165  4  0  0  0  0
164165  4  0  0  0  0
132166  1  0  0  0  0
133167  1  0  0  0  0
138168  1  0  0  0  0
139169  1  0  0  0  0
139170  1  0  0  0  0
140171  1  0  0  0  0
141172  1  0  0  0  0
142173  1  0  0  0  0
144174  1  0  0  0  0
145175  1  0  0  0  0
150176  1  0  0  0  0
151177  1  0  0  0  0
156178  1  0  0  0  0
157179  1  0  0  0  0
157180  1  0  0  0  0
158181  1  0  0  0  0
159182  1  0  0  0  0
160183  1  0  0  0  0
162184  1  0  0  0  0
163185  1  0  0  0  0
124187  4  0  0  0  0
187188  4  0  0  0  0
188189  4  0  0  0  0
189190  2  0  0  0  0
190191  4  0  0  0  0
186192  1  0  0  0  0
188192  4  0  0  0  0
191192  4  0  0  0  0
191193  4  0  0  0  0
193194  1  0  0  0  0
194195  2  0  0  0  0
195196  1  0  0  0  0
196197  1  0  0  0  0
197198  1  0  0  0  0
194199  1  0  0  0  0
198199  2  0  0  0  0
193200  4  0  0  0  0
200201  4  0  0  0  0
201202  2  0  0  0  0
186203  1  0  0  0  0
200203  4  0  0  0  0
202204  4  0  0  0  0
203204  4  0  0  0  0
126205  4  0  0  0  0
204205  4  0  0  0  0
205206  4  0  0  0  0
206207  4  0  0  0  0
207208  2  0  0  0  0
208209  4  0  0  0  0
186210  1  0  0  0  0
206210  4  0  0  0  0
209210  4  0  0  0  0
209211  4  0  0  0  0
211212  1  0  0  0  0
212213  2  0  0  0  0
213214  1  0  0  0  0
214215  1  0  0  0  0
215216  1  0  0  0  0
212217  1  0  0  0  0
216217  2  0  0  0  0
211218  4  0  0  0  0
218219  4  0  0  0  0
219220  2  0  0  0  0
187221  4  0  0  0  0
220221  4  0  0  0  0
186222  1  0  0  0  0
218222  4  0  0  0  0
221222  4  0  0  0  0
189223  1  0  0  0  0
190224  1  0  0  0  0
195225  1  0  0  0  0
196226  1  0  0  0  0
196227  1  0  0  0  0
197228  1  0  0  0  0
198229  1  0  0  0  0
199230  1  0  0  0  0
201231  1  0  0  0  0
202232  1  0  0  0  0
207233  1  0  0  0  0
208234  1  0  0  0  0
213235  1  0  0  0  0
214236  1  0  0  0  0
214237  1  0  0  0  0
215238  1  0  0  0  0
216239  1  0  0  0  0
217240  1  0  0  0  0
219241  1  0  0  0  0
220242  1  0  0  0  0
M  END
