 xtb: 6.5.1 (b24c23e)
          07302206583D

280319  0     0  0            999 V2000
   50.1987    0.0256   -0.0285 Cu  0  0  0  0  0  0  0  0  0  0  0  0
   46.7943    0.0978   -0.0788 C   0  0  0  0  0  0  0  0  0  0  0  0
   47.4256    1.0043    0.7599 C   0  0  0  0  0  0  0  0  0  0  0  0
   46.7468    1.9124    1.6383 C   0  0  0  0  0  0  0  0  0  0  0  0
   47.7031    2.6228    2.2872 C   0  0  0  0  0  0  0  0  0  0  0  0
   48.9751    2.1649    1.7994 C   0  0  0  0  0  0  0  0  0  0  0  0
   48.7757    1.1765    0.8789 N   0  0  0  0  0  0  0  0  0  0  0  0
   50.2178    2.6497    2.2182 C   0  0  0  0  0  0  0  0  0  0  0  0
   50.2278    3.7724    3.1851 C   0  0  0  0  0  0  0  0  0  0  0  0
   49.6219    4.9924    2.8720 C   0  0  0  0  0  0  0  0  0  0  0  0
   49.6410    6.0426    3.7702 C   0  0  0  0  0  0  0  0  0  0  0  0
   50.2625    5.9013    5.0171 C   0  0  0  0  0  0  0  0  0  0  0  0
   50.2081    6.9637    5.9074 N   0  0  0  0  0  0  0  0  0  0  0  0
   51.2102    7.0723    6.9594 C   0  0  0  0  0  0  0  0  0  0  0  0
   50.8546    4.6776    5.3425 C   0  0  0  0  0  0  0  0  0  0  0  0
   50.8418    3.6352    4.4315 C   0  0  0  0  0  0  0  0  0  0  0  0
   51.4518    2.1523    1.7918 C   0  0  0  0  0  0  0  0  0  0  0  0
   52.7269    2.7014    2.1553 C   0  0  0  0  0  0  0  0  0  0  0  0
   53.6754    1.9499    1.5399 C   0  0  0  0  0  0  0  0  0  0  0  0
   51.6436    1.0865    0.9521 N   0  0  0  0  0  0  0  0  0  0  0  0
   52.9873    0.9434    0.7901 C   0  0  0  0  0  0  0  0  0  0  0  0
   53.6262   -0.0418    0.0159 C   0  0  0  0  0  0  0  0  0  0  0  0
   52.9692   -1.0041   -0.7718 C   0  0  0  0  0  0  0  0  0  0  0  0
   53.6364   -2.0388   -1.5020 C   0  0  0  0  0  0  0  0  0  0  0  0
   52.6752   -2.7544   -2.1402 C   0  0  0  0  0  0  0  0  0  0  0  0
   51.4138   -2.1541   -1.8115 C   0  0  0  0  0  0  0  0  0  0  0  0
   51.6256   -1.0949   -0.9681 N   0  0  0  0  0  0  0  0  0  0  0  0
   50.1729   -2.6009   -2.2719 C   0  0  0  0  0  0  0  0  0  0  0  0
   50.1622   -3.7269   -3.2352 C   0  0  0  0  0  0  0  0  0  0  0  0
   50.8130   -3.6210   -4.4657 C   0  0  0  0  0  0  0  0  0  0  0  0
   50.8042   -4.6667   -5.3731 C   0  0  0  0  0  0  0  0  0  0  0  0
   50.1521   -5.8626   -5.0593 C   0  0  0  0  0  0  0  0  0  0  0  0
   50.0738   -6.9250   -5.9479 N   0  0  0  0  0  0  0  0  0  0  0  0
   51.0954   -7.0807   -6.9748 C   0  0  0  0  0  0  0  0  0  0  0  0
   49.4943   -5.9725   -3.8281 C   0  0  0  0  0  0  0  0  0  0  0  0
   49.4973   -4.9188   -2.9338 C   0  0  0  0  0  0  0  0  0  0  0  0
   48.9400   -2.0628   -1.8906 C   0  0  0  0  0  0  0  0  0  0  0  0
   47.6648   -2.4667   -2.4165 C   0  0  0  0  0  0  0  0  0  0  0  0
   46.7207   -1.7149   -1.7971 C   0  0  0  0  0  0  0  0  0  0  0  0
   47.4109   -0.8354   -0.8987 C   0  0  0  0  0  0  0  0  0  0  0  0
   48.7555   -1.0652   -0.9771 N   0  0  0  0  0  0  0  0  0  0  0  0
   45.7094    0.1210   -0.0948 H   0  0  0  0  0  0  0  0  0  0  0  0
   45.6754    1.9782    1.7457 H   0  0  0  0  0  0  0  0  0  0  0  0
   47.5652    3.3806    3.0417 H   0  0  0  0  0  0  0  0  0  0  0  0
   49.1533    5.1230    1.9026 H   0  0  0  0  0  0  0  0  0  0  0  0
   49.1746    6.9872    3.5107 H   0  0  0  0  0  0  0  0  0  0  0  0
   50.0355    7.8497    5.4477 H   0  0  0  0  0  0  0  0  0  0  0  0
   52.2270    7.0055    6.5558 H   0  0  0  0  0  0  0  0  0  0  0  0
   51.0645    6.2826    7.6976 H   0  0  0  0  0  0  0  0  0  0  0  0
   51.0798    8.0366    7.4504 H   0  0  0  0  0  0  0  0  0  0  0  0
   51.3246    4.5312    6.3072 H   0  0  0  0  0  0  0  0  0  0  0  0
   51.2972    2.6878    4.6992 H   0  0  0  0  0  0  0  0  0  0  0  0
   52.8746    3.5638    2.7850 H   0  0  0  0  0  0  0  0  0  0  0  0
   54.7468    2.0656    1.5772 H   0  0  0  0  0  0  0  0  0  0  0  0
   54.7031   -2.1966   -1.5108 H   0  0  0  0  0  0  0  0  0  0  0  0
   52.8048   -3.6236   -2.7646 H   0  0  0  0  0  0  0  0  0  0  0  0
   51.3149   -2.6949   -4.7248 H   0  0  0  0  0  0  0  0  0  0  0  0
   51.3041   -4.5444   -6.3261 H   0  0  0  0  0  0  0  0  0  0  0  0
   49.8514   -7.8010   -5.4904 H   0  0  0  0  0  0  0  0  0  0  0  0
   51.0012   -6.2890   -7.7191 H   0  0  0  0  0  0  0  0  0  0  0  0
   50.9361   -8.0410   -7.4654 H   0  0  0  0  0  0  0  0  0  0  0  0
   52.1042   -7.0552   -6.5470 H   0  0  0  0  0  0  0  0  0  0  0  0
   48.9817   -6.8954   -3.5776 H   0  0  0  0  0  0  0  0  0  0  0  0
   48.9989   -5.0251   -1.9764 H   0  0  0  0  0  0  0  0  0  0  0  0
   47.5177   -3.2190   -3.1747 H   0  0  0  0  0  0  0  0  0  0  0  0
   45.6512   -1.7349   -1.9370 H   0  0  0  0  0  0  0  0  0  0  0  0
   98.3119    0.0171   -0.0187 Cu  0  0  0  0  0  0  0  0  0  0  0  0
  101.7157    0.0643   -0.1141 C   0  0  0  0  0  0  0  0  0  0  0  0
  101.0861   -0.9556   -0.8119 C   0  0  0  0  0  0  0  0  0  0  0  0
  101.7664   -2.0090   -1.5082 C   0  0  0  0  0  0  0  0  0  0  0  0
  100.8111   -2.8024   -2.0543 C   0  0  0  0  0  0  0  0  0  0  0  0
   99.5381   -2.2314   -1.7090 C   0  0  0  0  0  0  0  0  0  0  0  0
   99.7361   -1.1155   -0.9479 N   0  0  0  0  0  0  0  0  0  0  0  0
   98.2957   -2.7518   -2.0844 C   0  0  0  0  0  0  0  0  0  0  0  0
   98.2881   -3.9410   -2.9686 C   0  0  0  0  0  0  0  0  0  0  0  0
   98.8877   -3.8977   -4.2304 C   0  0  0  0  0  0  0  0  0  0  0  0
   98.8726   -5.0037   -5.0589 C   0  0  0  0  0  0  0  0  0  0  0  0
   98.2618   -6.1941   -4.6456 C   0  0  0  0  0  0  0  0  0  0  0  0
   98.3213   -7.2947   -5.4878 N   0  0  0  0  0  0  0  0  0  0  0  0
   97.3308   -8.3551   -5.3574 C   0  0  0  0  0  0  0  0  0  0  0  0
   97.6754   -6.2482   -3.3779 C   0  0  0  0  0  0  0  0  0  0  0  0
   97.6839   -5.1313   -2.5598 C   0  0  0  0  0  0  0  0  0  0  0  0
   97.0610   -2.2320   -1.6881 C   0  0  0  0  0  0  0  0  0  0  0  0
   95.7861   -2.7124   -2.1391 C   0  0  0  0  0  0  0  0  0  0  0  0
   94.8369   -1.9486   -1.5402 C   0  0  0  0  0  0  0  0  0  0  0  0
   96.8680   -1.1781   -0.8337 N   0  0  0  0  0  0  0  0  0  0  0  0
   95.5242   -0.9922   -0.7266 C   0  0  0  0  0  0  0  0  0  0  0  0
   94.8844   -0.0205    0.0638 C   0  0  0  0  0  0  0  0  0  0  0  0
   95.5405    0.9608    0.8290 C   0  0  0  0  0  0  0  0  0  0  0  0
   94.8726    1.8977    1.6805 C   0  0  0  0  0  0  0  0  0  0  0  0
   95.8329    2.6791    2.2377 C   0  0  0  0  0  0  0  0  0  0  0  0
   97.0944    2.2307    1.7209 C   0  0  0  0  0  0  0  0  0  0  0  0
   96.8835    1.1756    0.8723 N   0  0  0  0  0  0  0  0  0  0  0  0
   98.3347    2.7820    2.0521 C   0  0  0  0  0  0  0  0  0  0  0  0
   98.3437    3.9699    2.9378 C   0  0  0  0  0  0  0  0  0  0  0  0
   97.6832    5.1426    2.5666 C   0  0  0  0  0  0  0  0  0  0  0  0
   97.6897    6.2585    3.3859 C   0  0  0  0  0  0  0  0  0  0  0  0
   98.3496    6.2211    4.6176 C   0  0  0  0  0  0  0  0  0  0  0  0
   98.4260    7.3231    5.4566 N   0  0  0  0  0  0  0  0  0  0  0  0
   97.3969    8.3521    5.3885 C   0  0  0  0  0  0  0  0  0  0  0  0
   99.0172    5.0488    4.9928 C   0  0  0  0  0  0  0  0  0  0  0  0
   99.0161    3.9437    4.1629 C   0  0  0  0  0  0  0  0  0  0  0  0
   99.5680    2.2967    1.6063 C   0  0  0  0  0  0  0  0  0  0  0  0
  100.8418    2.9040    1.8790 C   0  0  0  0  0  0  0  0  0  0  0  0
  101.7866    2.1387    1.2774 C   0  0  0  0  0  0  0  0  0  0  0  0
  101.0980    1.0661    0.6197 C   0  0  0  0  0  0  0  0  0  0  0  0
   99.7540    1.1871    0.8331 N   0  0  0  0  0  0  0  0  0  0  0  0
  102.8004    0.0800   -0.1453 H   0  0  0  0  0  0  0  0  0  0  0  0
  102.8381   -2.1236   -1.5536 H   0  0  0  0  0  0  0  0  0  0  0  0
  100.9504   -3.7042   -2.6285 H   0  0  0  0  0  0  0  0  0  0  0  0
   99.3485   -2.9770   -4.5716 H   0  0  0  0  0  0  0  0  0  0  0  0
   99.3342   -4.9535   -6.0396 H   0  0  0  0  0  0  0  0  0  0  0  0
   98.4867   -7.0390   -6.4539 H   0  0  0  0  0  0  0  0  0  0  0  0
   96.3097   -7.9573   -5.3740 H   0  0  0  0  0  0  0  0  0  0  0  0
   97.4880   -8.9011   -4.4262 H   0  0  0  0  0  0  0  0  0  0  0  0
   97.4631   -9.0438   -6.1918 H   0  0  0  0  0  0  0  0  0  0  0  0
   97.2134   -7.1609   -3.0221 H   0  0  0  0  0  0  0  0  0  0  0  0
   97.2333   -5.1888   -1.5748 H   0  0  0  0  0  0  0  0  0  0  0  0
   95.6391   -3.5184   -2.8398 H   0  0  0  0  0  0  0  0  0  0  0  0
   93.7653   -2.0141   -1.6417 H   0  0  0  0  0  0  0  0  0  0  0  0
   93.8061    1.9382    1.8349 H   0  0  0  0  0  0  0  0  0  0  0  0
   95.7025    3.4774    2.9503 H   0  0  0  0  0  0  0  0  0  0  0  0
   97.1755    5.1875    1.6091 H   0  0  0  0  0  0  0  0  0  0  0  0
   97.1819    7.1577    3.0591 H   0  0  0  0  0  0  0  0  0  0  0  0
   98.6574    7.0727    6.4105 H   0  0  0  0  0  0  0  0  0  0  0  0
   97.4803    8.9030    4.4508 H   0  0  0  0  0  0  0  0  0  0  0  0
   97.5577    9.0443    6.2149 H   0  0  0  0  0  0  0  0  0  0  0  0
   96.3916    7.9224    5.4659 H   0  0  0  0  0  0  0  0  0  0  0  0
   99.5359    5.0117    5.9451 H   0  0  0  0  0  0  0  0  0  0  0  0
   99.5219    3.0366    4.4754 H   0  0  0  0  0  0  0  0  0  0  0  0
  100.9877    3.8097    2.4455 H   0  0  0  0  0  0  0  0  0  0  0  0
  102.8554    2.2844    1.2611 H   0  0  0  0  0  0  0  0  0  0  0  0
   58.8281   -0.0777    0.0422 C   0  0  0  0  0  0  0  0  0  0  0  0
   57.5996   -0.0795    0.0398 C   0  0  0  0  0  0  0  0  0  0  0  0
   56.2552   -0.0738    0.0350 C   0  0  0  0  0  0  0  0  0  0  0  0
   55.0313   -0.0633    0.0280 C   0  0  0  0  0  0  0  0  0  0  0  0
   60.1723   -0.0715    0.0390 C   0  0  0  0  0  0  0  0  0  0  0  0
   61.3964   -0.0596    0.0330 C   0  0  0  0  0  0  0  0  0  0  0  0
   74.8698    0.0955   -0.0940 C   0  0  0  0  0  0  0  0  0  0  0  0
   73.6410    0.0961   -0.1017 C   0  0  0  0  0  0  0  0  0  0  0  0
   72.2970    0.0955   -0.1035 C   0  0  0  0  0  0  0  0  0  0  0  0
   71.0727    0.0884   -0.1026 C   0  0  0  0  0  0  0  0  0  0  0  0
   76.2137    0.0925   -0.0807 C   0  0  0  0  0  0  0  0  0  0  0  0
   77.4379    0.0844   -0.0661 C   0  0  0  0  0  0  0  0  0  0  0  0
   90.9111   -0.0270    0.1104 C   0  0  0  0  0  0  0  0  0  0  0  0
   89.6825   -0.0226    0.1119 C   0  0  0  0  0  0  0  0  0  0  0  0
   88.3384   -0.0133    0.1074 C   0  0  0  0  0  0  0  0  0  0  0  0
   87.1142   -0.0055    0.0953 C   0  0  0  0  0  0  0  0  0  0  0  0
   92.2554   -0.0274    0.1023 C   0  0  0  0  0  0  0  0  0  0  0  0
   93.4794   -0.0275    0.0877 C   0  0  0  0  0  0  0  0  0  0  0  0
   66.2346    0.0192   -0.0401 Cu  0  0  0  0  0  0  0  0  0  0  0  0
   62.8011   -0.0460    0.0241 C   0  0  0  0  0  0  0  0  0  0  0  0
   63.4534   -1.0292   -0.7421 C   0  0  0  0  0  0  0  0  0  0  0  0
   62.7775   -2.0177   -1.5261 C   0  0  0  0  0  0  0  0  0  0  0  0
   63.7364   -2.7611   -2.1357 C   0  0  0  0  0  0  0  0  0  0  0  0
   65.0051   -2.2369   -1.7184 C   0  0  0  0  0  0  0  0  0  0  0  0
   64.7991   -1.1768   -0.8755 N   0  0  0  0  0  0  0  0  0  0  0  0
   66.2468   -2.7202   -2.1386 C   0  0  0  0  0  0  0  0  0  0  0  0
   66.2502   -3.8942   -3.0449 C   0  0  0  0  0  0  0  0  0  0  0  0
   65.7056   -5.1144   -2.6356 C   0  0  0  0  0  0  0  0  0  0  0  0
   65.7043   -6.2072   -3.4819 C   0  0  0  0  0  0  0  0  0  0  0  0
   66.2377   -6.1080   -4.7727 C   0  0  0  0  0  0  0  0  0  0  0  0
   66.2537   -7.2435   -5.5700 N   0  0  0  0  0  0  0  0  0  0  0  0
   66.3284   -7.1042   -7.0183 C   0  0  0  0  0  0  0  0  0  0  0  0
   66.7908   -4.8921   -5.1842 C   0  0  0  0  0  0  0  0  0  0  0  0
   66.7950   -3.8048   -4.3268 C   0  0  0  0  0  0  0  0  0  0  0  0
   67.4839   -2.1834   -1.7738 C   0  0  0  0  0  0  0  0  0  0  0  0
   68.7573   -2.7163   -2.1650 C   0  0  0  0  0  0  0  0  0  0  0  0
   69.7092   -1.9311   -1.5987 C   0  0  0  0  0  0  0  0  0  0  0  0
   67.6802   -1.0936   -0.9669 N   0  0  0  0  0  0  0  0  0  0  0  0
   69.0245   -0.9204   -0.8513 C   0  0  0  0  0  0  0  0  0  0  0  0
   69.6681    0.0792   -0.0988 C   0  0  0  0  0  0  0  0  0  0  0  0
   69.0158    1.0601    0.6706 C   0  0  0  0  0  0  0  0  0  0  0  0
   69.6915    2.0420    1.4630 C   0  0  0  0  0  0  0  0  0  0  0  0
   68.7326    2.7897    2.0673 C   0  0  0  0  0  0  0  0  0  0  0  0
   67.4639    2.2743    1.6390 C   0  0  0  0  0  0  0  0  0  0  0  0
   67.6700    1.2149    0.7952 N   0  0  0  0  0  0  0  0  0  0  0  0
   66.2218    2.7653    2.0495 C   0  0  0  0  0  0  0  0  0  0  0  0
   66.2149    3.9454    2.9472 C   0  0  0  0  0  0  0  0  0  0  0  0
   65.6432    3.8721    4.2184 C   0  0  0  0  0  0  0  0  0  0  0  0
   65.6319    4.9689    5.0635 C   0  0  0  0  0  0  0  0  0  0  0  0
   66.1969    6.1787    4.6504 C   0  0  0  0  0  0  0  0  0  0  0  0
   66.1612    7.3251    5.4306 N   0  0  0  0  0  0  0  0  0  0  0  0
   66.0320    7.2104    6.8769 C   0  0  0  0  0  0  0  0  0  0  0  0
   66.7626    6.2602    3.3720 C   0  0  0  0  0  0  0  0  0  0  0  0
   66.7757    5.1584    2.5379 C   0  0  0  0  0  0  0  0  0  0  0  0
   64.9845    2.2308    1.6806 C   0  0  0  0  0  0  0  0  0  0  0  0
   63.7108    2.7721    2.0591 C   0  0  0  0  0  0  0  0  0  0  0  0
   62.7592    1.9819    1.4992 C   0  0  0  0  0  0  0  0  0  0  0  0
   63.4444    0.9610    0.7666 C   0  0  0  0  0  0  0  0  0  0  0  0
   64.7888    1.1327    0.8851 N   0  0  0  0  0  0  0  0  0  0  0  0
   61.7065   -2.1175   -1.6021 H   0  0  0  0  0  0  0  0  0  0  0  0
   63.5980   -3.5825   -2.8200 H   0  0  0  0  0  0  0  0  0  0  0  0
   65.2969   -5.2086   -1.6354 H   0  0  0  0  0  0  0  0  0  0  0  0
   65.2879   -7.1516   -3.1478 H   0  0  0  0  0  0  0  0  0  0  0  0
   65.5658   -7.9301   -5.2845 H   0  0  0  0  0  0  0  0  0  0  0  0
   65.5619   -6.4185   -7.3976 H   0  0  0  0  0  0  0  0  0  0  0  0
   67.3138   -6.7372   -7.3085 H   0  0  0  0  0  0  0  0  0  0  0  0
   66.1798   -8.0900   -7.4592 H   0  0  0  0  0  0  0  0  0  0  0  0
   67.2193   -4.7871   -6.1733 H   0  0  0  0  0  0  0  0  0  0  0  0
   67.2101   -2.8613   -4.6645 H   0  0  0  0  0  0  0  0  0  0  0  0
   68.9025   -3.5894   -2.7804 H   0  0  0  0  0  0  0  0  0  0  0  0
   70.7811   -2.0251   -1.6691 H   0  0  0  0  0  0  0  0  0  0  0  0
   70.7625    2.1349    1.5477 H   0  0  0  0  0  0  0  0  0  0  0  0
   68.8704    3.6079    2.7555 H   0  0  0  0  0  0  0  0  0  0  0  0
   65.2174    2.9339    4.5577 H   0  0  0  0  0  0  0  0  0  0  0  0
   65.1809    4.8760    6.0439 H   0  0  0  0  0  0  0  0  0  0  0  0
   66.8598    8.0060    5.1582 H   0  0  0  0  0  0  0  0  0  0  0  0
   66.7845    6.5333    7.2971 H   0  0  0  0  0  0  0  0  0  0  0  0
   66.1616    8.2039    7.3063 H   0  0  0  0  0  0  0  0  0  0  0  0
   65.0370    6.8459    7.1354 H   0  0  0  0  0  0  0  0  0  0  0  0
   67.1909    7.1993    3.0376 H   0  0  0  0  0  0  0  0  0  0  0  0
   67.2073    5.2400    1.5463 H   0  0  0  0  0  0  0  0  0  0  0  0
   63.5646    3.6540    2.6615 H   0  0  0  0  0  0  0  0  0  0  0  0
   61.6873    2.0799    1.5636 H   0  0  0  0  0  0  0  0  0  0  0  0
   82.2758    0.0409    0.0128 Cu  0  0  0  0  0  0  0  0  0  0  0  0
   78.8421    0.0734   -0.0456 C   0  0  0  0  0  0  0  0  0  0  0  0
   79.4937   -0.9521   -0.7554 C   0  0  0  0  0  0  0  0  0  0  0  0
   78.8191   -2.0150   -1.4362 C   0  0  0  0  0  0  0  0  0  0  0  0
   79.7778   -2.7891   -2.0069 C   0  0  0  0  0  0  0  0  0  0  0  0
   81.0442   -2.1966   -1.6856 C   0  0  0  0  0  0  0  0  0  0  0  0
   80.8385   -1.0832   -0.9145 N   0  0  0  0  0  0  0  0  0  0  0  0
   82.2858   -2.6942   -2.0906 C   0  0  0  0  0  0  0  0  0  0  0  0
   82.2916   -3.8646   -2.9991 C   0  0  0  0  0  0  0  0  0  0  0  0
   82.9273   -5.0536   -2.6299 C   0  0  0  0  0  0  0  0  0  0  0  0
   82.9374   -6.1433   -3.4795 C   0  0  0  0  0  0  0  0  0  0  0  0
   82.3224   -6.0723   -4.7356 C   0  0  0  0  0  0  0  0  0  0  0  0
   82.3217   -7.2053   -5.5357 N   0  0  0  0  0  0  0  0  0  0  0  0
   82.1552   -7.0699   -6.9766 C   0  0  0  0  0  0  0  0  0  0  0  0
   81.6781   -4.8885   -5.1067 C   0  0  0  0  0  0  0  0  0  0  0  0
   81.6649   -3.8048   -4.2452 C   0  0  0  0  0  0  0  0  0  0  0  0
   83.5237   -2.1712   -1.7067 C   0  0  0  0  0  0  0  0  0  0  0  0
   84.7941   -2.6285   -2.1915 C   0  0  0  0  0  0  0  0  0  0  0  0
   85.7474   -1.8758   -1.5840 C   0  0  0  0  0  0  0  0  0  0  0  0
   83.7217   -1.1404   -0.8264 N   0  0  0  0  0  0  0  0  0  0  0  0
   85.0654   -0.9480   -0.7343 C   0  0  0  0  0  0  0  0  0  0  0  0
   85.7099    0.0057    0.0750 C   0  0  0  0  0  0  0  0  0  0  0  0
   85.0564    0.9725    0.8610 C   0  0  0  0  0  0  0  0  0  0  0  0
   85.7259    1.8899    1.7316 C   0  0  0  0  0  0  0  0  0  0  0  0
   84.7671    2.6659    2.2996 C   0  0  0  0  0  0  0  0  0  0  0  0
   83.5061    2.2326    1.7702 C   0  0  0  0  0  0  0  0  0  0  0  0
   83.7144    1.1928    0.9033 N   0  0  0  0  0  0  0  0  0  0  0  0
   82.2664    2.7849    2.1042 C   0  0  0  0  0  0  0  0  0  0  0  0
   82.2643    3.9665    2.9982 C   0  0  0  0  0  0  0  0  0  0  0  0
   81.5926    3.9377    4.2218 C   0  0  0  0  0  0  0  0  0  0  0  0
   81.5937    5.0355    5.0655 C   0  0  0  0  0  0  0  0  0  0  0  0
   82.2707    6.2021    4.6987 C   0  0  0  0  0  0  0  0  0  0  0  0
   82.2587    7.3492    5.4783 N   0  0  0  0  0  0  0  0  0  0  0  0
   82.0315    7.2435    6.9133 C   0  0  0  0  0  0  0  0  0  0  0  0
   82.9334    6.2412    3.4656 C   0  0  0  0  0  0  0  0  0  0  0  0
   82.9349    5.1377    2.6339 C   0  0  0  0  0  0  0  0  0  0  0  0
   81.0301    2.3094    1.6588 C   0  0  0  0  0  0  0  0  0  0  0  0
   79.7650    2.9277    1.9336 C   0  0  0  0  0  0  0  0  0  0  0  0
   78.8116    2.1678    1.3356 C   0  0  0  0  0  0  0  0  0  0  0  0
   79.4885    1.0888    0.6831 C   0  0  0  0  0  0  0  0  0  0  0  0
   80.8294    1.1956    0.8870 N   0  0  0  0  0  0  0  0  0  0  0  0
   77.7496   -2.1505   -1.4600 H   0  0  0  0  0  0  0  0  0  0  0  0
   79.6422   -3.6926   -2.5790 H   0  0  0  0  0  0  0  0  0  0  0  0
   83.4005   -5.1265   -1.6567 H   0  0  0  0  0  0  0  0  0  0  0  0
   83.4250   -7.0637   -3.1758 H   0  0  0  0  0  0  0  0  0  0  0  0
   83.0597   -7.8552   -5.2929 H   0  0  0  0  0  0  0  0  0  0  0  0
   81.1390   -6.7478   -7.2072 H   0  0  0  0  0  0  0  0  0  0  0  0
   82.8662   -6.3504   -7.3987 H   0  0  0  0  0  0  0  0  0  0  0  0
   82.3217   -8.0480   -7.4281 H   0  0  0  0  0  0  0  0  0  0  0  0
   81.1855   -4.8061   -6.0677 H   0  0  0  0  0  0  0  0  0  0  0  0
   81.1783   -2.8855   -4.5531 H   0  0  0  0  0  0  0  0  0  0  0  0
   84.9366   -3.4121   -2.9180 H   0  0  0  0  0  0  0  0  0  0  0  0
   86.8176   -1.9298   -1.7039 H   0  0  0  0  0  0  0  0  0  0  0  0
   86.7920    1.9220    1.8907 H   0  0  0  0  0  0  0  0  0  0  0  0
   84.8986    3.4505    3.0272 H   0  0  0  0  0  0  0  0  0  0  0  0
   81.0792    3.0322    4.5264 H   0  0  0  0  0  0  0  0  0  0  0  0
   81.0651    4.9775    6.0091 H   0  0  0  0  0  0  0  0  0  0  0  0
   83.0169    7.9823    5.2539 H   0  0  0  0  0  0  0  0  0  0  0  0
   82.7113    6.5196    7.3770 H   0  0  0  0  0  0  0  0  0  0  0  0
   82.1973    8.2268    7.3537 H   0  0  0  0  0  0  0  0  0  0  0  0
   81.0009    6.9437    7.1076 H   0  0  0  0  0  0  0  0  0  0  0  0
   83.4480    7.1479    3.1653 H   0  0  0  0  0  0  0  0  0  0  0  0
   83.4446    5.1858    1.6779 H   0  0  0  0  0  0  0  0  0  0  0  0
   79.6273    3.8372    2.4957 H   0  0  0  0  0  0  0  0  0  0  0  0
   77.7446    2.3234    1.3226 H   0  0  0  0  0  0  0  0  0  0  0  0
  2  3  4  0  0  0  0
  3  4  1  0  0  0  0
  4  5  2  0  0  0  0
  5  6  4  0  0  0  0
  1  7  1  0  0  0  0
  3  7  4  0  0  0  0
  6  7  4  0  0  0  0
  6  8  4  0  0  0  0
  8  9  1  0  0  0  0
  9 10  4  0  0  0  0
 10 11  4  0  0  0  0
 11 12  4  0  0  0  0
 12 13  1  0  0  0  0
 13 14  1  0  0  0  0
 12 15  4  0  0  0  0
  9 16  4  0  0  0  0
 15 16  4  0  0  0  0
  8 17  4  0  0  0  0
 17 18  4  0  0  0  0
 18 19  2  0  0  0  0
  1 20  1  0  0  0  0
 17 20  4  0  0  0  0
 19 21  4  0  0  0  0
 20 21  4  0  0  0  0
 21 22  4  0  0  0  0
 22 23  4  0  0  0  0
 23 24  4  0  0  0  0
 24 25  2  0  0  0  0
 25 26  4  0  0  0  0
  1 27  1  0  0  0  0
 23 27  4  0  0  0  0
 26 27  4  0  0  0  0
 26 28  4  0  0  0  0
 28 29  1  0  0  0  0
 29 30  4  0  0  0  0
 30 31  4  0  0  0  0
 31 32  4  0  0  0  0
 32 33  1  0  0  0  0
 33 34  1  0  0  0  0
 32 35  4  0  0  0  0
 29 36  4  0  0  0  0
 35 36  4  0  0  0  0
 28 37  4  0  0  0  0
 37 38  4  0  0  0  0
 38 39  2  0  0  0  0
  2 40  4  0  0  0  0
 39 40  1  0  0  0  0
  1 41  1  0  0  0  0
 37 41  4  0  0  0  0
 40 41  4  0  0  0  0
  2 42  1  0  0  0  0
  4 43  1  0  0  0  0
  5 44  1  0  0  0  0
 10 45  1  0  0  0  0
 11 46  1  0  0  0  0
 13 47  1  0  0  0  0
 14 48  1  0  0  0  0
 14 49  1  0  0  0  0
 14 50  1  0  0  0  0
 15 51  1  0  0  0  0
 16 52  1  0  0  0  0
 18 53  1  0  0  0  0
 19 54  1  0  0  0  0
 24 55  1  0  0  0  0
 25 56  1  0  0  0  0
 30 57  1  0  0  0  0
 31 58  1  0  0  0  0
 33 59  1  0  0  0  0
 34 60  1  0  0  0  0
 34 61  1  0  0  0  0
 34 62  1  0  0  0  0
 35 63  1  0  0  0  0
 36 64  1  0  0  0  0
 38 65  1  0  0  0  0
 39 66  1  0  0  0  0
 68 69  4  0  0  0  0
 69 70  1  0  0  0  0
 70 71  2  0  0  0  0
 71 72  4  0  0  0  0
 67 73  1  0  0  0  0
 69 73  4  0  0  0  0
 72 73  4  0  0  0  0
 72 74  4  0  0  0  0
 74 75  1  0  0  0  0
 75 76  4  0  0  0  0
 76 77  4  0  0  0  0
 77 78  4  0  0  0  0
 78 79  1  0  0  0  0
 79 80  1  0  0  0  0
 78 81  4  0  0  0  0
 75 82  4  0  0  0  0
 81 82  4  0  0  0  0
 74 83  4  0  0  0  0
 83 84  4  0  0  0  0
 84 85  2  0  0  0  0
 67 86  1  0  0  0  0
 83 86  4  0  0  0  0
 85 87  4  0  0  0  0
 86 87  4  0  0  0  0
 87 88  4  0  0  0  0
 88 89  4  0  0  0  0
 89 90  4  0  0  0  0
 90 91  2  0  0  0  0
 91 92  4  0  0  0  0
 67 93  1  0  0  0  0
 89 93  4  0  0  0  0
 92 93  4  0  0  0  0
 92 94  4  0  0  0  0
 94 95  1  0  0  0  0
 95 96  4  0  0  0  0
 96 97  4  0  0  0  0
 97 98  4  0  0  0  0
 98 99  1  0  0  0  0
 99100  1  0  0  0  0
 98101  4  0  0  0  0
 95102  4  0  0  0  0
101102  4  0  0  0  0
 94103  4  0  0  0  0
103104  4  0  0  0  0
104105  2  0  0  0  0
 68106  4  0  0  0  0
105106  1  0  0  0  0
 67107  1  0  0  0  0
103107  4  0  0  0  0
106107  4  0  0  0  0
 68108  1  0  0  0  0
 70109  1  0  0  0  0
 71110  1  0  0  0  0
 76111  1  0  0  0  0
 77112  1  0  0  0  0
 79113  1  0  0  0  0
 80114  1  0  0  0  0
 80115  1  0  0  0  0
 80116  1  0  0  0  0
 81117  1  0  0  0  0
 82118  1  0  0  0  0
 84119  1  0  0  0  0
 85120  1  0  0  0  0
 90121  1  0  0  0  0
 91122  1  0  0  0  0
 96123  1  0  0  0  0
 97124  1  0  0  0  0
 99125  1  0  0  0  0
100126  1  0  0  0  0
100127  1  0  0  0  0
100128  1  0  0  0  0
101129  1  0  0  0  0
102130  1  0  0  0  0
104131  1  0  0  0  0
105132  1  0  0  0  0
133134  3  0  0  0  0
134135  4  0  0  0  0
 22136  4  0  0  0  0
135136  3  0  0  0  0
133137  4  0  0  0  0
137138  3  0  0  0  0
139140  3  0  0  0  0
140141  4  0  0  0  0
141142  3  0  0  0  0
139143  4  0  0  0  0
143144  3  0  0  0  0
145146  3  0  0  0  0
146147  4  0  0  0  0
147148  3  0  0  0  0
145149  4  0  0  0  0
 88150  4  0  0  0  0
149150  3  0  0  0  0
138152  4  0  0  0  0
152153  4  0  0  0  0
153154  4  0  0  0  0
154155  2  0  0  0  0
155156  4  0  0  0  0
151157  1  0  0  0  0
153157  4  0  0  0  0
156157  4  0  0  0  0
156158  4  0  0  0  0
158159  1  0  0  0  0
159160  4  0  0  0  0
160161  4  0  0  0  0
161162  4  0  0  0  0
162163  1  0  0  0  0
163164  1  0  0  0  0
162165  4  0  0  0  0
159166  4  0  0  0  0
165166  4  0  0  0  0
158167  4  0  0  0  0
167168  4  0  0  0  0
168169  2  0  0  0  0
151170  1  0  0  0  0
167170  4  0  0  0  0
169171  4  0  0  0  0
170171  4  0  0  0  0
142172  4  0  0  0  0
171172  4  0  0  0  0
172173  4  0  0  0  0
173174  4  0  0  0  0
174175  2  0  0  0  0
175176  4  0  0  0  0
151177  1  0  0  0  0
173177  4  0  0  0  0
176177  4  0  0  0  0
176178  4  0  0  0  0
178179  1  0  0  0  0
179180  4  0  0  0  0
180181  4  0  0  0  0
181182  4  0  0  0  0
182183  1  0  0  0  0
183184  1  0  0  0  0
182185  4  0  0  0  0
179186  4  0  0  0  0
185186  4  0  0  0  0
178187  4  0  0  0  0
187188  4  0  0  0  0
188189  2  0  0  0  0
152190  4  0  0  0  0
189190  4  0  0  0  0
151191  1  0  0  0  0
187191  4  0  0  0  0
190191  4  0  0  0  0
154192  1  0  0  0  0
155193  1  0  0  0  0
160194  1  0  0  0  0
161195  1  0  0  0  0
163196  1  0  0  0  0
164197  1  0  0  0  0
164198  1  0  0  0  0
164199  1  0  0  0  0
165200  1  0  0  0  0
166201  1  0  0  0  0
168202  1  0  0  0  0
169203  1  0  0  0  0
174204  1  0  0  0  0
175205  1  0  0  0  0
180206  1  0  0  0  0
181207  1  0  0  0  0
183208  1  0  0  0  0
184209  1  0  0  0  0
184210  1  0  0  0  0
184211  1  0  0  0  0
185212  1  0  0  0  0
186213  1  0  0  0  0
188214  1  0  0  0  0
189215  1  0  0  0  0
144217  4  0  0  0  0
217218  4  0  0  0  0
218219  4  0  0  0  0
219220  2  0  0  0  0
220221  4  0  0  0  0
216222  1  0  0  0  0
218222  4  0  0  0  0
221222  4  0  0  0  0
221223  4  0  0  0  0
223224  1  0  0  0  0
224225  4  0  0  0  0
225226  4  0  0  0  0
226227  4  0  0  0  0
227228  1  0  0  0  0
228229  1  0  0  0  0
227230  4  0  0  0  0
224231  4  0  0  0  0
230231  4  0  0  0  0
223232  4  0  0  0  0
232233  4  0  0  0  0
233234  2  0  0  0  0
216235  1  0  0  0  0
232235  4  0  0  0  0
234236  4  0  0  0  0
235236  4  0  0  0  0
148237  4  0  0  0  0
236237  4  0  0  0  0
237238  4  0  0  0  0
238239  4  0  0  0  0
239240  2  0  0  0  0
240241  4  0  0  0  0
216242  1  0  0  0  0
238242  4  0  0  0  0
241242  4  0  0  0  0
241243  4  0  0  0  0
243244  1  0  0  0  0
244245  4  0  0  0  0
245246  4  0  0  0  0
246247  4  0  0  0  0
247248  1  0  0  0  0
248249  1  0  0  0  0
247250  4  0  0  0  0
244251  4  0  0  0  0
250251  4  0  0  0  0
243252  4  0  0  0  0
252253  4  0  0  0  0
253254  2  0  0  0  0
217255  4  0  0  0  0
254255  4  0  0  0  0
216256  1  0  0  0  0
252256  4  0  0  0  0
255256  4  0  0  0  0
219257  1  0  0  0  0
220258  1  0  0  0  0
225259  1  0  0  0  0
226260  1  0  0  0  0
228261  1  0  0  0  0
229262  1  0  0  0  0
229263  1  0  0  0  0
229264  1  0  0  0  0
230265  1  0  0  0  0
231266  1  0  0  0  0
233267  1  0  0  0  0
234268  1  0  0  0  0
239269  1  0  0  0  0
240270  1  0  0  0  0
245271  1  0  0  0  0
246272  1  0  0  0  0
248273  1  0  0  0  0
249274  1  0  0  0  0
249275  1  0  0  0  0
249276  1  0  0  0  0
250277  1  0  0  0  0
251278  1  0  0  0  0
253279  1  0  0  0  0
254280  1  0  0  0  0
M  END
