 xtb: 6.5.1 (b24c23e)
          07302200223D

126145  0     0  0            999 V2000
   14.1305    0.0406   -0.0288 Co  0  0  0  0  0  0  0  0  0  0  0  0
   10.7620    0.1233    0.1022 C   0  0  0  0  0  0  0  0  0  0  0  0
   11.4147    1.0693   -0.6598 C   0  0  0  0  0  0  0  0  0  0  0  0
   10.7526    2.0597   -1.4518 C   0  0  0  0  0  0  0  0  0  0  0  0
   11.7112    2.9103   -1.8907 C   0  0  0  0  0  0  0  0  0  0  0  0
   12.9554    2.4482   -1.3495 C   0  0  0  0  0  0  0  0  0  0  0  0
   12.7706    1.2814   -0.6534 N   0  0  0  0  0  0  0  0  0  0  0  0
   14.1485    3.1592   -1.4096 C   0  0  0  0  0  0  0  0  0  0  0  0
   14.1581    4.5061   -2.0188 C   0  0  0  0  0  0  0  0  0  0  0  0
   15.0093    4.7987   -3.0880 C   0  0  0  0  0  0  0  0  0  0  0  0
   15.0213    6.0571   -3.6619 C   0  0  0  0  0  0  0  0  0  0  0  0
   14.1892    7.0632   -3.1636 C   0  0  0  0  0  0  0  0  0  0  0  0
   14.1722    8.3123   -3.7577 N   0  0  0  0  0  0  0  0  0  0  0  0
   13.3321    6.7781   -2.0972 C   0  0  0  0  0  0  0  0  0  0  0  0
   13.3181    5.5137   -1.5366 C   0  0  0  0  0  0  0  0  0  0  0  0
   15.3312    2.6371   -0.9039 C   0  0  0  0  0  0  0  0  0  0  0  0
   16.5747    3.3459   -0.8693 C   0  0  0  0  0  0  0  0  0  0  0  0
   17.5232    2.4547   -0.4910 C   0  0  0  0  0  0  0  0  0  0  0  0
   15.5074    1.3419   -0.4728 N   0  0  0  0  0  0  0  0  0  0  0  0
   16.8549    1.2096   -0.2847 C   0  0  0  0  0  0  0  0  0  0  0  0
   17.5215    0.0022   -0.0608 C   0  0  0  0  0  0  0  0  0  0  0  0
   16.8286   -1.1886    0.1741 C   0  0  0  0  0  0  0  0  0  0  0  0
   17.4653   -2.4559    0.3391 C   0  0  0  0  0  0  0  0  0  0  0  0
   16.5025   -3.3254    0.7327 C   0  0  0  0  0  0  0  0  0  0  0  0
   15.2834   -2.5802    0.8212 C   0  0  0  0  0  0  0  0  0  0  0  0
   15.4862   -1.2819    0.4121 N   0  0  0  0  0  0  0  0  0  0  0  0
   14.1051   -3.0714    1.3661 C   0  0  0  0  0  0  0  0  0  0  0  0
   14.0914   -4.4286    1.9525 C   0  0  0  0  0  0  0  0  0  0  0  0
   14.9658   -4.7656    2.9892 C   0  0  0  0  0  0  0  0  0  0  0  0
   14.9519   -6.0318    3.5458 C   0  0  0  0  0  0  0  0  0  0  0  0
   14.0697   -7.0013    3.0611 C   0  0  0  0  0  0  0  0  0  0  0  0
   14.0263   -8.2567    3.6403 N   0  0  0  0  0  0  0  0  0  0  0  0
   13.1906   -6.6719    2.0257 C   0  0  0  0  0  0  0  0  0  0  0  0
   13.2022   -5.3994    1.4836 C   0  0  0  0  0  0  0  0  0  0  0  0
   12.9383   -2.3161    1.3773 C   0  0  0  0  0  0  0  0  0  0  0  0
   11.7090   -2.7395    1.9809 C   0  0  0  0  0  0  0  0  0  0  0  0
   10.7653   -1.8359    1.6246 C   0  0  0  0  0  0  0  0  0  0  0  0
   11.4211   -0.8567    0.8130 C   0  0  0  0  0  0  0  0  0  0  0  0
   12.7652   -1.1227    0.7244 N   0  0  0  0  0  0  0  0  0  0  0  0
    9.6792    0.1472    0.1384 H   0  0  0  0  0  0  0  0  0  0  0  0
    9.6900    2.0862   -1.6348 H   0  0  0  0  0  0  0  0  0  0  0  0
   11.5983    3.7762   -2.5228 H   0  0  0  0  0  0  0  0  0  0  0  0
   15.6515    4.0209   -3.4865 H   0  0  0  0  0  0  0  0  0  0  0  0
   15.6773    6.2680   -4.4994 H   0  0  0  0  0  0  0  0  0  0  0  0
   15.0053    8.5530   -4.2704 H   0  0  0  0  0  0  0  0  0  0  0  0
   13.8205    9.0570   -3.1774 H   0  0  0  0  0  0  0  0  0  0  0  0
   12.6819    7.5541   -1.7081 H   0  0  0  0  0  0  0  0  0  0  0  0
   12.6648    5.3068   -0.6960 H   0  0  0  0  0  0  0  0  0  0  0  0
   16.6961    4.3907   -1.1047 H   0  0  0  0  0  0  0  0  0  0  0  0
   18.5828    2.6089   -0.3657 H   0  0  0  0  0  0  0  0  0  0  0  0
   18.5149   -2.6398    0.1749 H   0  0  0  0  0  0  0  0  0  0  0  0
   16.5989   -4.3777    0.9454 H   0  0  0  0  0  0  0  0  0  0  0  0
   15.6470   -4.0162    3.3772 H   0  0  0  0  0  0  0  0  0  0  0  0
   15.6257   -6.2771    4.3595 H   0  0  0  0  0  0  0  0  0  0  0  0
   14.8642   -8.5328    4.1267 H   0  0  0  0  0  0  0  0  0  0  0  0
   13.6311   -8.9813    3.0628 H   0  0  0  0  0  0  0  0  0  0  0  0
   12.5023   -7.4196    1.6469 H   0  0  0  0  0  0  0  0  0  0  0  0
   12.5292   -5.1571    0.6683 H   0  0  0  0  0  0  0  0  0  0  0  0
   11.5959   -3.6175    2.5961 H   0  0  0  0  0  0  0  0  0  0  0  0
    9.7154   -1.8217    1.8709 H   0  0  0  0  0  0  0  0  0  0  0  0
   30.0787   -0.0480    0.0164 Co  0  0  0  0  0  0  0  0  0  0  0  0
   33.4446    0.0150    0.1581 C   0  0  0  0  0  0  0  0  0  0  0  0
   32.7914   -1.1474    0.5108 C   0  0  0  0  0  0  0  0  0  0  0  0
   33.4501   -2.3622    0.8806 C   0  0  0  0  0  0  0  0  0  0  0  0
   32.4909   -3.1978    1.3468 C   0  0  0  0  0  0  0  0  0  0  0  0
   31.2498   -2.4839    1.2793 C   0  0  0  0  0  0  0  0  0  0  0  0
   31.4363   -1.2556    0.6993 N   0  0  0  0  0  0  0  0  0  0  0  0
   30.0601   -2.9188    1.8531 C   0  0  0  0  0  0  0  0  0  0  0  0
   30.0503   -4.1703    2.6389 C   0  0  0  0  0  0  0  0  0  0  0  0
   29.1759   -5.2106    2.3120 C   0  0  0  0  0  0  0  0  0  0  0  0
   29.1634   -6.3840    3.0439 C   0  0  0  0  0  0  0  0  0  0  0  0
   30.0193   -6.5375    4.1380 C   0  0  0  0  0  0  0  0  0  0  0  0
   30.0354   -7.7232    4.8501 N   0  0  0  0  0  0  0  0  0  0  0  0
   30.8999   -5.5041    4.4693 C   0  0  0  0  0  0  0  0  0  0  0  0
   30.9135   -4.3382    3.7253 C   0  0  0  0  0  0  0  0  0  0  0  0
   28.8812   -2.1992    1.7106 C   0  0  0  0  0  0  0  0  0  0  0  0
   27.6409   -2.5483    2.3348 C   0  0  0  0  0  0  0  0  0  0  0  0
   26.6923   -1.7408    1.8004 C   0  0  0  0  0  0  0  0  0  0  0  0
   28.7039   -1.1295    0.8629 N   0  0  0  0  0  0  0  0  0  0  0  0
   27.3573   -0.8939    0.8625 C   0  0  0  0  0  0  0  0  0  0  0  0
   26.6903   -0.0517   -0.0311 C   0  0  0  0  0  0  0  0  0  0  0  0
   27.3843    0.7905   -0.9046 C   0  0  0  0  0  0  0  0  0  0  0  0
   26.7519    1.6154   -1.8834 C   0  0  0  0  0  0  0  0  0  0  0  0
   27.7151    2.4239   -2.3905 C   0  0  0  0  0  0  0  0  0  0  0  0
   28.9301    2.0991   -1.7066 C   0  0  0  0  0  0  0  0  0  0  0  0
   28.7253    1.0463   -0.8445 N   0  0  0  0  0  0  0  0  0  0  0  0
   30.1043    2.8338   -1.8020 C   0  0  0  0  0  0  0  0  0  0  0  0
   30.1179    4.0723   -2.6086 C   0  0  0  0  0  0  0  0  0  0  0  0
   29.2209    5.1092   -2.3375 C   0  0  0  0  0  0  0  0  0  0  0  0
   29.2334    6.2724   -3.0857 C   0  0  0  0  0  0  0  0  0  0  0  0
   30.1379    6.4177   -4.1411 C   0  0  0  0  0  0  0  0  0  0  0  0
   30.1790    7.5942   -4.8672 N   0  0  0  0  0  0  0  0  0  0  0  0
   31.0400    5.3866   -4.4176 C   0  0  0  0  0  0  0  0  0  0  0  0
   31.0289    4.2318   -3.6565 C   0  0  0  0  0  0  0  0  0  0  0  0
   31.2667    2.4328   -1.1533 C   0  0  0  0  0  0  0  0  0  0  0  0
   32.4922    3.1765   -1.1553 C   0  0  0  0  0  0  0  0  0  0  0  0
   33.4362    2.3790   -0.6006 C   0  0  0  0  0  0  0  0  0  0  0  0
   32.7843    1.1543   -0.2504 C   0  0  0  0  0  0  0  0  0  0  0  0
   31.4412    1.2254   -0.5271 N   0  0  0  0  0  0  0  0  0  0  0  0
   34.5274    0.0316    0.1974 H   0  0  0  0  0  0  0  0  0  0  0  0
   34.5110   -2.5345    0.7910 H   0  0  0  0  0  0  0  0  0  0  0  0
   32.6018   -4.2076    1.7075 H   0  0  0  0  0  0  0  0  0  0  0  0
   28.5154   -5.1037    1.4584 H   0  0  0  0  0  0  0  0  0  0  0  0
   28.4888   -7.1887    2.7725 H   0  0  0  0  0  0  0  0  0  0  0  0
   29.1924   -8.2711    4.7874 H   0  0  0  0  0  0  0  0  0  0  0  0
   30.4114   -7.6571    5.7824 H   0  0  0  0  0  0  0  0  0  0  0  0
   31.5686   -5.6186    5.3154 H   0  0  0  0  0  0  0  0  0  0  0  0
   31.5849   -3.5329    4.0027 H   0  0  0  0  0  0  0  0  0  0  0  0
   27.5213   -3.3132    3.0847 H   0  0  0  0  0  0  0  0  0  0  0  0
   25.6344   -1.7140    2.0066 H   0  0  0  0  0  0  0  0  0  0  0  0
   25.7046    1.5728   -2.1359 H   0  0  0  0  0  0  0  0  0  0  0  0
   27.6212    3.1741   -3.1587 H   0  0  0  0  0  0  0  0  0  0  0  0
   28.5227    5.0085   -1.5137 H   0  0  0  0  0  0  0  0  0  0  0  0
   28.5413    7.0754   -2.8566 H   0  0  0  0  0  0  0  0  0  0  0  0
   29.3317    8.1387   -4.8487 H   0  0  0  0  0  0  0  0  0  0  0  0
   30.5976    7.5196   -5.7805 H   0  0  0  0  0  0  0  0  0  0  0  0
   31.7456    5.4946   -5.2342 H   0  0  0  0  0  0  0  0  0  0  0  0
   31.7195    3.4288   -3.8898 H   0  0  0  0  0  0  0  0  0  0  0  0
   32.6032    4.1791   -1.5354 H   0  0  0  0  0  0  0  0  0  0  0  0
   34.4840    2.5804   -0.4433 H   0  0  0  0  0  0  0  0  0  0  0  0
   22.7204   -0.0480   -0.0809 C   0  0  0  0  0  0  0  0  0  0  0  0
   21.4916   -0.0412   -0.0844 C   0  0  0  0  0  0  0  0  0  0  0  0
   20.1479   -0.0305   -0.0821 C   0  0  0  0  0  0  0  0  0  0  0  0
   18.9238   -0.0156   -0.0746 C   0  0  0  0  0  0  0  0  0  0  0  0
   24.0640   -0.0516   -0.0704 C   0  0  0  0  0  0  0  0  0  0  0  0
   25.2881   -0.0535   -0.0540 C   0  0  0  0  0  0  0  0  0  0  0  0
  2  3  4  0  0  0  0
  3  4  4  0  0  0  0
  4  5  2  0  0  0  0
  5  6  4  0  0  0  0
  1  7  1  0  0  0  0
  3  7  4  0  0  0  0
  6  7  4  0  0  0  0
  6  8  4  0  0  0  0
  8  9  1  0  0  0  0
  9 10  4  0  0  0  0
 10 11  4  0  0  0  0
 11 12  4  0  0  0  0
 12 13  1  0  0  0  0
 12 14  4  0  0  0  0
  9 15  4  0  0  0  0
 14 15  4  0  0  0  0
  8 16  4  0  0  0  0
 16 17  4  0  0  0  0
 17 18  2  0  0  0  0
  1 19  1  0  0  0  0
 16 19  4  0  0  0  0
 18 20  4  0  0  0  0
 19 20  4  0  0  0  0
 20 21  4  0  0  0  0
 21 22  4  0  0  0  0
 22 23  4  0  0  0  0
 23 24  2  0  0  0  0
 24 25  4  0  0  0  0
  1 26  1  0  0  0  0
 22 26  4  0  0  0  0
 25 26  4  0  0  0  0
 25 27  4  0  0  0  0
 27 28  1  0  0  0  0
 28 29  4  0  0  0  0
 29 30  4  0  0  0  0
 30 31  4  0  0  0  0
 31 32  1  0  0  0  0
 31 33  4  0  0  0  0
 28 34  4  0  0  0  0
 33 34  4  0  0  0  0
 27 35  4  0  0  0  0
 35 36  4  0  0  0  0
 36 37  2  0  0  0  0
  2 38  4  0  0  0  0
 37 38  1  0  0  0  0
  1 39  1  0  0  0  0
 35 39  4  0  0  0  0
 38 39  4  0  0  0  0
  2 40  1  0  0  0  0
  4 41  1  0  0  0  0
  5 42  1  0  0  0  0
 10 43  1  0  0  0  0
 11 44  1  0  0  0  0
 13 45  1  0  0  0  0
 13 46  1  0  0  0  0
 14 47  1  0  0  0  0
 15 48  1  0  0  0  0
 17 49  1  0  0  0  0
 18 50  1  0  0  0  0
 23 51  1  0  0  0  0
 24 52  1  0  0  0  0
 29 53  1  0  0  0  0
 30 54  1  0  0  0  0
 32 55  1  0  0  0  0
 32 56  1  0  0  0  0
 33 57  1  0  0  0  0
 34 58  1  0  0  0  0
 36 59  1  0  0  0  0
 37 60  1  0  0  0  0
 62 63  4  0  0  0  0
 63 64  4  0  0  0  0
 64 65  2  0  0  0  0
 65 66  4  0  0  0  0
 61 67  1  0  0  0  0
 63 67  4  0  0  0  0
 66 67  4  0  0  0  0
 66 68  4  0  0  0  0
 68 69  1  0  0  0  0
 69 70  4  0  0  0  0
 70 71  4  0  0  0  0
 71 72  4  0  0  0  0
 72 73  1  0  0  0  0
 72 74  4  0  0  0  0
 69 75  4  0  0  0  0
 74 75  4  0  0  0  0
 68 76  4  0  0  0  0
 76 77  4  0  0  0  0
 77 78  2  0  0  0  0
 61 79  1  0  0  0  0
 76 79  4  0  0  0  0
 78 80  4  0  0  0  0
 79 80  4  0  0  0  0
 80 81  4  0  0  0  0
 81 82  4  0  0  0  0
 82 83  4  0  0  0  0
 83 84  2  0  0  0  0
 84 85  4  0  0  0  0
 61 86  1  0  0  0  0
 82 86  4  0  0  0  0
 85 86  4  0  0  0  0
 85 87  4  0  0  0  0
 87 88  1  0  0  0  0
 88 89  4  0  0  0  0
 89 90  4  0  0  0  0
 90 91  4  0  0  0  0
 91 92  1  0  0  0  0
 91 93  4  0  0  0  0
 88 94  4  0  0  0  0
 93 94  4  0  0  0  0
 87 95  4  0  0  0  0
 95 96  4  0  0  0  0
 96 97  2  0  0  0  0
 62 98  4  0  0  0  0
 97 98  1  0  0  0  0
 61 99  1  0  0  0  0
 95 99  4  0  0  0  0
 98 99  4  0  0  0  0
 62100  1  0  0  0  0
 64101  1  0  0  0  0
 65102  1  0  0  0  0
 70103  1  0  0  0  0
 71104  1  0  0  0  0
 73105  1  0  0  0  0
 73106  1  0  0  0  0
 74107  1  0  0  0  0
 75108  1  0  0  0  0
 77109  1  0  0  0  0
 78110  1  0  0  0  0
 83111  1  0  0  0  0
 84112  1  0  0  0  0
 89113  1  0  0  0  0
 90114  1  0  0  0  0
 92115  1  0  0  0  0
 92116  1  0  0  0  0
 93117  1  0  0  0  0
 94118  1  0  0  0  0
 96119  1  0  0  0  0
 97120  1  0  0  0  0
121122  3  0  0  0  0
122123  4  0  0  0  0
 21124  4  0  0  0  0
123124  3  0  0  0  0
121125  4  0  0  0  0
 81126  4  0  0  0  0
125126  3  0  0  0  0
M  END
