226

Zn 36.121454 0.013789 -0.014700
C 32.755420 -0.100363 -0.046636
C 33.418358 -1.258789 0.010917
C 32.766723 -2.561719 0.069728
C 33.706581 -3.482091 0.176654
C 35.012743 -2.809316 0.190607
N 34.836583 -1.396403 0.080671
C 36.201638 -3.427248 0.344148
C 36.237413 -4.898441 0.494492
C 36.442686 -5.474900 1.755031
C 36.471356 -6.866203 1.876029
N 36.298694 -7.650031 0.778304
C 36.096754 -7.115080 -0.455452
C 36.063415 -5.728410 -0.621219
C 37.495880 -2.696498 0.384038
C 38.785896 -3.334191 0.673502
C 39.720525 -2.409949 0.589724
N 37.637737 -1.432337 0.124890
C 39.036899 -1.172219 0.236747
C 39.633285 0.004950 -0.015519
C 38.875422 1.220816 -0.388818
C 39.418716 2.294269 -0.948681
C 38.376044 3.293841 -1.066777
C 37.264389 2.767070 -0.567748
N 37.489139 1.430014 -0.117282
C 35.979282 3.500324 -0.430839
C 36.002130 4.982965 -0.478034
C 35.340417 5.676898 -1.501580
C 35.384627 7.072805 -1.524368
N 36.071262 7.749990 -0.565616
C 36.730464 7.102107 0.430918
C 36.711563 5.706772 0.491374
C 34.812391 2.851545 -0.253518
C 33.500184 3.467841 -0.063654
C 32.637944 2.474310 0.030152
C 33.390335 1.226364 -0.085224
N 34.658698 1.433532 -0.250710
H 31.672270 -0.128345 -0.046832
H 31.702337 -2.756256 0.044579
H 33.518045 -4.545072 0.254249
H 36.579088 -4.853489 2.631475
H 36.630170 -7.323348 2.843490
H 35.961581 -7.766642 -1.308379
H 35.901980 -5.305419 -1.604950
H 38.963991 -4.374912 0.908240
H 40.778282 -2.573074 0.743761
H 40.451895 2.419373 -1.242339
H 38.494028 4.292955 -1.464552
H 34.799773 5.142224 -2.271851
H 34.873968 7.618270 -2.306692
H 37.268721 7.670358 1.178058
H 37.237057 5.195672 1.288610
H 33.255660 4.520181 -0.002828
H 31.570824 2.578820 0.176397
Zn 78.434039 -0.003269 -0.012165
C 81.800073 0.096667 -0.075910
C 81.137135 1.221786 -0.357638
C 81.788770 2.485532 -0.680175
C 80.848912 3.397235 -0.845453
C 79.542750 2.757579 -0.636503
N 79.718910 1.373736 -0.330906
C 78.353855 3.393457 -0.669249
C 78.318080 4.844810 -0.953127
C 78.112807 5.762852 0.085364
C 78.084137 7.129234 -0.203365
N 78.256799 7.560056 -1.481559
C 78.458739 6.689516 -2.506492
C 78.492078 5.314551 -2.261945
C 77.059613 2.705871 -0.418628
C 75.769597 3.400175 -0.327067
C 74.834968 2.491500 -0.138517
N 76.917756 1.420973 -0.299045
C 75.518594 1.204613 -0.116394
C 74.922208 0.004950 -0.015519
C 75.680071 -1.266926 -0.019198
C 75.136777 -2.456781 -0.242786
C 76.179449 -3.447510 -0.065170
C 77.291104 -2.798408 0.259152
N 77.066354 -1.388142 0.301430
C 78.576211 -3.460184 0.603330
C 78.553363 -4.892501 0.989229
C 79.215076 -5.854039 0.211648
C 79.170866 -7.196274 0.595683
N 78.484231 -7.565464 1.709902
C 77.825029 -6.655840 2.475027
C 77.843930 -5.303202 2.127199
C 79.743102 -2.787877 0.584368
C 81.055309 -3.322350 0.945209
C 81.917549 -2.344464 0.746109
C 81.165158 -1.183968 0.272895
N 79.896795 -1.430300 0.174789
H 82.883223 0.123384 -0.084233
H 82.853156 2.664354 -0.760796
H 81.037448 4.436859 -1.080256
H 77.976405 5.423097 1.104614
H 77.925323 7.847906 0.589396
H 78.593912 7.064957 -3.512007
H 78.653513 4.623827 -3.080204
H 75.591502 4.464188 -0.405043
H 73.777211 2.692363 -0.038560
H 74.103598 -2.661858 -0.487387
H 76.061465 -4.519113 -0.155285
H 79.755720 -5.566407 -0.680799
H 79.681525 -7.945625 0.005739
H 77.286772 -6.982324 3.355104
H 77.318436 -4.582395 2.741402
H 81.299833 -4.311549 1.309361
H 82.984669 -2.401941 0.916422
C 43.220197 0.018009 -0.012901
C 41.967926 -0.001171 -0.017250
C 44.533865 0.017244 -0.010969
C 46.036998 -0.001171 -0.017250
C 56.536329 0.018009 -0.012901
C 55.284059 -0.001171 -0.017250
C 57.849997 0.017244 -0.010969
C 59.353131 -0.001171 -0.017250
C 69.852461 0.018009 -0.012901
C 68.600191 -0.001171 -0.017250
C 71.166129 0.017244 -0.010969
C 72.669263 -0.001171 -0.017250
Zn 50.544321 0.029650 -0.052089
C 47.176678 -0.004911 0.017764
C 47.831999 -0.803204 0.880480
C 47.191122 -1.624817 1.909237
C 48.127436 -2.309170 2.535833
C 49.424686 -1.969568 1.942286
N 49.246909 -1.008258 0.898856
C 50.609078 -2.497283 2.318956
C 50.645142 -3.533685 3.377025
C 50.117562 -4.811395 3.140341
C 50.177120 -5.775963 4.148911
N 50.747670 -5.476624 5.346314
C 51.271812 -4.247704 5.599174
C 51.232191 -3.253539 4.618693
C 51.905714 -2.083212 1.724605
C 53.173838 -2.786384 1.957267
C 54.125872 -2.117409 1.338880
N 52.073563 -1.029193 0.988164
C 53.471285 -0.982626 0.700970
C 54.086247 -0.004911 0.017764
C 53.335186 1.095351 -0.621879
C 53.867681 2.252776 -0.992353
C 52.835573 2.995814 -1.690653
C 51.744559 2.238518 -1.702398
N 51.970016 1.002966 -1.026050
C 50.491846 2.579444 -2.418796
C 50.554813 3.568533 -3.523095
C 51.361799 3.323365 -4.643354
C 51.426262 4.273222 -5.665538
N 50.716007 5.428585 -5.569150
C 49.932199 5.695697 -4.490797
C 49.839788 4.773364 -3.445884
C 49.320536 1.996004 -2.098602
C 48.045618 2.196789 -2.779933
C 47.157892 1.488340 -2.112272
C 47.854779 0.824784 -1.004915
N 49.118859 1.114524 -0.993533
H 46.136448 -1.680494 2.143251
H 47.940833 -2.993406 3.353184
H 49.667735 -5.055797 2.185923
H 49.771294 -6.764180 3.978673
H 51.720485 -4.042247 6.561706
H 51.652358 -2.276490 4.823696
H 53.323258 -3.691072 2.531824
H 55.174729 -2.382446 1.327036
H 54.889453 2.573492 -0.838901
H 52.949955 3.968266 -2.151842
H 51.930998 2.405435 -4.724739
H 52.042602 4.091998 -6.535893
H 49.382679 6.626307 -4.442723
H 49.222149 4.996224 -2.584506
H 47.841961 2.791651 -3.660541
H 46.108161 1.417051 -2.363213
Zn 63.860453 0.029650 -0.052089
C 60.492811 -0.004911 0.017764
C 61.148131 -0.803204 0.880480
C 60.507254 -1.624817 1.909237
C 61.443568 -2.309170 2.535833
C 62.740818 -1.969568 1.942286
N 62.563041 -1.008258 0.898856
C 63.925210 -2.497283 2.318956
C 63.961275 -3.533685 3.377025
C 63.433694 -4.811395 3.140341
C 63.493252 -5.775963 4.148911
N 64.063803 -5.476624 5.346314
C 64.587944 -4.247704 5.599174
C 64.548323 -3.253539 4.618693
C 65.221846 -2.083212 1.724605
C 66.489970 -2.786384 1.957267
C 67.442004 -2.117409 1.338880
N 65.389695 -1.029193 0.988164
C 66.787417 -0.982626 0.700970
C 67.402379 -0.004911 0.017764
C 66.651319 1.095351 -0.621879
C 67.183814 2.252776 -0.992353
C 66.151705 2.995814 -1.690653
C 65.060692 2.238518 -1.702398
N 65.286149 1.002966 -1.026050
C 63.807979 2.579444 -2.418796
C 63.870945 3.568533 -3.523095
C 64.677931 3.323365 -4.643354
C 64.742394 4.273222 -5.665538
N 64.032139 5.428585 -5.569150
C 63.248332 5.695697 -4.490797
C 63.155920 4.773364 -3.445884
C 62.636668 1.996004 -2.098602
C 61.361750 2.196789 -2.779933
C 60.474025 1.488340 -2.112272
C 61.170911 0.824784 -1.004915
N 62.434992 1.114524 -0.993533
H 59.452580 -1.680494 2.143251
H 61.256966 -2.993406 3.353184
H 62.983867 -5.055797 2.185923
H 63.087427 -6.764180 3.978673
H 65.036617 -4.042247 6.561706
H 64.968491 -2.276490 4.823696
H 66.639391 -3.691072 2.531824
H 68.490861 -2.382446 1.327036
H 68.205585 2.573492 -0.838901
H 66.266087 3.968266 -2.151842
H 65.247130 2.405435 -4.724739
H 65.358734 4.091998 -6.535893
H 62.698811 6.626307 -4.442723
H 62.538281 4.996224 -2.584506
H 61.158093 2.791651 -3.660541
H 59.424293 1.417051 -2.363213
