 xtb: 6.5.1 (b24c23e)
          07272213563D

210230  0     0  0            999 V2000
   29.3629    0.0705    0.0500 C   0  0  0  0  0  0  0  0  0  0  0  0
   29.9702    1.2765    0.3748 C   0  0  0  0  0  0  0  0  0  0  0  0
   29.3190    2.4884    0.7395 C   0  0  0  0  0  0  0  0  0  0  0  0
   30.2813    3.4307    0.9700 C   0  0  0  0  0  0  0  0  0  0  0  0
   31.5517    2.8278    0.7435 C   0  0  0  0  0  0  0  0  0  0  0  0
   31.3130    1.5280    0.3966 N   0  0  0  0  0  0  0  0  0  0  0  0
   32.8128    3.4211    0.8621 C   0  0  0  0  0  0  0  0  0  0  0  0
   34.0305    2.7677    0.6591 C   0  0  0  0  0  0  0  0  0  0  0  0
   35.3225    3.4252    0.7353 C   0  0  0  0  0  0  0  0  0  0  0  0
   36.2494    2.4767    0.4878 C   0  0  0  0  0  0  0  0  0  0  0  0
   34.1940    1.4516    0.3511 N   0  0  0  0  0  0  0  0  0  0  0  0
   35.5234    1.2440    0.2508 C   0  0  0  0  0  0  0  0  0  0  0  0
   36.1658    0.0184   -0.0141 C   0  0  0  0  0  0  0  0  0  0  0  0
   35.5327   -1.2123   -0.2686 C   0  0  0  0  0  0  0  0  0  0  0  0
   36.1764   -2.4515   -0.5266 C   0  0  0  0  0  0  0  0  0  0  0  0
   35.2097   -3.3912   -0.7559 C   0  0  0  0  0  0  0  0  0  0  0  0
   33.9435   -2.7511   -0.6556 C   0  0  0  0  0  0  0  0  0  0  0  0
   32.6832   -3.3358   -0.8189 C   0  0  0  0  0  0  0  0  0  0  0  0
   32.6551   -4.7732   -1.1864 C   0  0  0  0  0  0  0  0  0  0  0  0
   32.0526   -5.7038   -0.3408 C   0  0  0  0  0  0  0  0  0  0  0  0
   32.0219   -7.0519   -0.6808 C   0  0  0  0  0  0  0  0  0  0  0  0
   31.3563   -8.0498    0.2279 C   0  0  0  0  0  0  0  0  0  0  0  0
   32.5947   -7.4663   -1.8797 C   0  0  0  0  0  0  0  0  0  0  0  0
   33.1998   -6.5499   -2.7345 C   0  0  0  0  0  0  0  0  0  0  0  0
   33.7964   -7.0051   -4.0391 C   0  0  0  0  0  0  0  0  0  0  0  0
   33.2287   -5.2049   -2.3818 C   0  0  0  0  0  0  0  0  0  0  0  0
   31.4641   -2.6677   -0.6676 C   0  0  0  0  0  0  0  0  0  0  0  0
   30.1634   -3.2797   -0.8913 C   0  0  0  0  0  0  0  0  0  0  0  0
   29.2439   -2.3252   -0.6438 C   0  0  0  0  0  0  0  0  0  0  0  0
   29.9817   -1.1280   -0.2811 C   0  0  0  0  0  0  0  0  0  0  0  0
   31.3152   -1.3687   -0.3143 N   0  0  0  0  0  0  0  0  0  0  0  0
   34.1905   -1.4389   -0.3491 N   0  0  0  0  0  0  0  0  0  0  0  0
   32.8382    4.8583    1.2341 C   0  0  0  0  0  0  0  0  0  0  0  0
   33.4342    5.2648    2.4262 C   0  0  0  0  0  0  0  0  0  0  0  0
   33.4515    6.6090    2.7859 C   0  0  0  0  0  0  0  0  0  0  0  0
   34.1048    7.0341    4.0733 C   0  0  0  0  0  0  0  0  0  0  0  0
   32.8734    7.5486    1.9390 C   0  0  0  0  0  0  0  0  0  0  0  0
   32.2757    7.1585    0.7435 C   0  0  0  0  0  0  0  0  0  0  0  0
   31.6735    8.1879   -0.1746 C   0  0  0  0  0  0  0  0  0  0  0  0
   32.2586    5.8121    0.3977 C   0  0  0  0  0  0  0  0  0  0  0  0
   28.2776    0.0744    0.0577 H   0  0  0  0  0  0  0  0  0  0  0  0
   28.2501    2.6083    0.8178 H   0  0  0  0  0  0  0  0  0  0  0  0
   30.1315    4.4531    1.2773 H   0  0  0  0  0  0  0  0  0  0  0  0
   32.0370    0.8484    0.1891 H   0  0  0  0  0  0  0  0  0  0  0  0
   35.4767    4.4724    0.9399 H   0  0  0  0  0  0  0  0  0  0  0  0
   37.3223    2.5783    0.4616 H   0  0  0  0  0  0  0  0  0  0  0  0
   37.2445   -2.5978   -0.5341 H   0  0  0  0  0  0  0  0  0  0  0  0
   35.3571   -4.4373   -0.9695 H   0  0  0  0  0  0  0  0  0  0  0  0
   31.6224   -5.3710    0.5975 H   0  0  0  0  0  0  0  0  0  0  0  0
   30.3135   -8.1830   -0.0689 H   0  0  0  0  0  0  0  0  0  0  0  0
   31.8514   -9.0194    0.1688 H   0  0  0  0  0  0  0  0  0  0  0  0
   31.3736   -7.7063    1.2623 H   0  0  0  0  0  0  0  0  0  0  0  0
   32.5717   -8.5171   -2.1497 H   0  0  0  0  0  0  0  0  0  0  0  0
   34.6150   -6.3515   -4.3413 H   0  0  0  0  0  0  0  0  0  0  0  0
   34.1700   -8.0263   -3.9601 H   0  0  0  0  0  0  0  0  0  0  0  0
   33.0358   -6.9815   -4.8229 H   0  0  0  0  0  0  0  0  0  0  0  0
   33.6848   -4.4800   -3.0472 H   0  0  0  0  0  0  0  0  0  0  0  0
   30.0015   -4.2980   -1.2064 H   0  0  0  0  0  0  0  0  0  0  0  0
   28.1686   -2.3916   -0.7013 H   0  0  0  0  0  0  0  0  0  0  0  0
   33.4693   -0.7399   -0.2049 H   0  0  0  0  0  0  0  0  0  0  0  0
   33.8704    4.5220    3.0851 H   0  0  0  0  0  0  0  0  0  0  0  0
   33.8501    6.3454    4.8797 H   0  0  0  0  0  0  0  0  0  0  0  0
   33.7929    8.0393    4.3566 H   0  0  0  0  0  0  0  0  0  0  0  0
   35.1909    7.0312    3.9582 H   0  0  0  0  0  0  0  0  0  0  0  0
   32.8849    8.5984    2.2137 H   0  0  0  0  0  0  0  0  0  0  0  0
   31.2301    9.0043    0.3963 H   0  0  0  0  0  0  0  0  0  0  0  0
   32.4484    8.6078   -0.8200 H   0  0  0  0  0  0  0  0  0  0  0  0
   30.9067    7.7430   -0.8090 H   0  0  0  0  0  0  0  0  0  0  0  0
   31.8062    5.4978   -0.5366 H   0  0  0  0  0  0  0  0  0  0  0  0
   57.9251   -0.0779    0.0134 C   0  0  0  0  0  0  0  0  0  0  0  0
   57.3240   -1.2978   -0.2676 C   0  0  0  0  0  0  0  0  0  0  0  0
   57.9814   -2.5352   -0.5175 C   0  0  0  0  0  0  0  0  0  0  0  0
   57.0239   -3.4785   -0.7635 C   0  0  0  0  0  0  0  0  0  0  0  0
   55.7504   -2.8459   -0.6806 C   0  0  0  0  0  0  0  0  0  0  0  0
   55.9824   -1.5361   -0.3692 N   0  0  0  0  0  0  0  0  0  0  0  0
   54.4926   -3.4300   -0.8640 C   0  0  0  0  0  0  0  0  0  0  0  0
   53.2710   -2.7659   -0.7305 C   0  0  0  0  0  0  0  0  0  0  0  0
   51.9833   -3.3831   -0.9920 C   0  0  0  0  0  0  0  0  0  0  0  0
   51.0512   -2.4360   -0.7589 C   0  0  0  0  0  0  0  0  0  0  0  0
   53.0998   -1.4653   -0.3659 N   0  0  0  0  0  0  0  0  0  0  0  0
   51.7695   -1.2404   -0.3628 C   0  0  0  0  0  0  0  0  0  0  0  0
   51.1203   -0.0320   -0.0413 C   0  0  0  0  0  0  0  0  0  0  0  0
   51.7470    1.1853    0.2840 C   0  0  0  0  0  0  0  0  0  0  0  0
   51.0977    2.3944    0.6483 C   0  0  0  0  0  0  0  0  0  0  0  0
   52.0599    3.3363    0.8873 C   0  0  0  0  0  0  0  0  0  0  0  0
   53.3289    2.7317    0.6708 C   0  0  0  0  0  0  0  0  0  0  0  0
   54.5866    3.3272    0.8147 C   0  0  0  0  0  0  0  0  0  0  0  0
   54.6071    4.7653    1.1792 C   0  0  0  0  0  0  0  0  0  0  0  0
   55.2005    5.1794    2.3712 C   0  0  0  0  0  0  0  0  0  0  0  0
   55.2206    6.5252    2.7207 C   0  0  0  0  0  0  0  0  0  0  0  0
   55.8746    6.9680    4.0018 C   0  0  0  0  0  0  0  0  0  0  0  0
   54.6468    7.4609    1.8649 C   0  0  0  0  0  0  0  0  0  0  0  0
   54.0513    7.0638    0.6714 C   0  0  0  0  0  0  0  0  0  0  0  0
   53.4531    8.0862   -0.2570 C   0  0  0  0  0  0  0  0  0  0  0  0
   54.0326    5.7146    0.3347 C   0  0  0  0  0  0  0  0  0  0  0  0
   55.8092    2.6704    0.6438 C   0  0  0  0  0  0  0  0  0  0  0  0
   57.1070    3.3198    0.7461 C   0  0  0  0  0  0  0  0  0  0  0  0
   58.0316    2.3639    0.5244 C   0  0  0  0  0  0  0  0  0  0  0  0
   57.2999    1.1341    0.2766 C   0  0  0  0  0  0  0  0  0  0  0  0
   55.9650    1.3581    0.3471 N   0  0  0  0  0  0  0  0  0  0  0  0
   53.0880    1.4306    0.3159 N   0  0  0  0  0  0  0  0  0  0  0  0
   54.4756   -4.8667   -1.2369 C   0  0  0  0  0  0  0  0  0  0  0  0
   53.8696   -5.8041   -0.4027 C   0  0  0  0  0  0  0  0  0  0  0  0
   53.8572   -7.1527   -0.7459 C   0  0  0  0  0  0  0  0  0  0  0  0
   53.1910   -8.1525    0.1603 C   0  0  0  0  0  0  0  0  0  0  0  0
   54.4513   -7.5589   -1.9361 C   0  0  0  0  0  0  0  0  0  0  0  0
   55.0598   -6.6343   -2.7808 C   0  0  0  0  0  0  0  0  0  0  0  0
   55.6797   -7.0829   -4.0768 C   0  0  0  0  0  0  0  0  0  0  0  0
   55.0709   -5.2905   -2.4250 C   0  0  0  0  0  0  0  0  0  0  0  0
   59.0104   -0.0807    0.0243 H   0  0  0  0  0  0  0  0  0  0  0  0
   59.0508   -2.6731   -0.5028 H   0  0  0  0  0  0  0  0  0  0  0  0
   57.1789   -4.5239   -0.9763 H   0  0  0  0  0  0  0  0  0  0  0  0
   55.2552   -0.8422   -0.2315 H   0  0  0  0  0  0  0  0  0  0  0  0
   51.8354   -4.3980   -1.3238 H   0  0  0  0  0  0  0  0  0  0  0  0
   49.9802   -2.5115   -0.8554 H   0  0  0  0  0  0  0  0  0  0  0  0
   50.0296    2.5171    0.7271 H   0  0  0  0  0  0  0  0  0  0  0  0
   51.9077    4.3570    1.1983 H   0  0  0  0  0  0  0  0  0  0  0  0
   55.6310    4.4395    3.0371 H   0  0  0  0  0  0  0  0  0  0  0  0
   56.9157    7.2393    3.8118 H   0  0  0  0  0  0  0  0  0  0  0  0
   55.3676    7.8403    4.4151 H   0  0  0  0  0  0  0  0  0  0  0  0
   55.8619    6.1678    4.7419 H   0  0  0  0  0  0  0  0  0  0  0  0
   54.6612    8.5123    2.1331 H   0  0  0  0  0  0  0  0  0  0  0  0
   52.6540    7.6478   -0.8551 H   0  0  0  0  0  0  0  0  0  0  0  0
   53.0527    8.9317    0.3029 H   0  0  0  0  0  0  0  0  0  0  0  0
   54.2200    8.4627   -0.9378 H   0  0  0  0  0  0  0  0  0  0  0  0
   53.5834    5.3954   -0.5995 H   0  0  0  0  0  0  0  0  0  0  0  0
   57.2636    4.3675    0.9473 H   0  0  0  0  0  0  0  0  0  0  0  0
   59.1067    2.4530    0.5145 H   0  0  0  0  0  0  0  0  0  0  0  0
   53.8125    0.7478    0.1197 H   0  0  0  0  0  0  0  0  0  0  0  0
   53.4214   -5.4781    0.5294 H   0  0  0  0  0  0  0  0  0  0  0  0
   53.4295   -7.9447    1.2041 H   0  0  0  0  0  0  0  0  0  0  0  0
   53.5072   -9.1679   -0.0782 H   0  0  0  0  0  0  0  0  0  0  0  0
   52.1064   -8.0946    0.0445 H   0  0  0  0  0  0  0  0  0  0  0  0
   54.4436   -8.6091   -2.2093 H   0  0  0  0  0  0  0  0  0  0  0  0
   56.1158   -8.0770   -3.9744 H   0  0  0  0  0  0  0  0  0  0  0  0
   54.9166   -7.1265   -4.8574 H   0  0  0  0  0  0  0  0  0  0  0  0
   56.4555   -6.3879   -4.3984 H   0  0  0  0  0  0  0  0  0  0  0  0
   55.5304   -4.5595   -3.0814 H   0  0  0  0  0  0  0  0  0  0  0  0
   37.5761    0.0074   -0.0277 C   0  0  0  0  0  0  0  0  0  0  0  0
   38.7929   -0.0028   -0.0408 C   0  0  0  0  0  0  0  0  0  0  0  0
   48.4929   -0.0271   -0.0412 C   0  0  0  0  0  0  0  0  0  0  0  0
   49.7099   -0.0255   -0.0443 C   0  0  0  0  0  0  0  0  0  0  0  0
   40.2025   -0.0114   -0.0502 C   0  0  0  0  0  0  0  0  0  0  0  0
   40.8261   -1.2050    0.3579 C   0  0  0  0  0  0  0  0  0  0  0  0
   40.1797   -2.3804    0.8205 C   0  0  0  0  0  0  0  0  0  0  0  0
   41.1450   -3.3028    1.1196 C   0  0  0  0  0  0  0  0  0  0  0  0
   42.4108   -2.7188    0.8417 C   0  0  0  0  0  0  0  0  0  0  0  0
   42.1673   -1.4488    0.3912 N   0  0  0  0  0  0  0  0  0  0  0  0
   43.6688   -3.3087    1.0117 C   0  0  0  0  0  0  0  0  0  0  0  0
   44.8971   -2.6898    0.7754 C   0  0  0  0  0  0  0  0  0  0  0  0
   46.1771   -3.3614    0.9135 C   0  0  0  0  0  0  0  0  0  0  0  0
   47.1229   -2.4463    0.6172 C   0  0  0  0  0  0  0  0  0  0  0  0
   45.0864   -1.4001    0.3830 N   0  0  0  0  0  0  0  0  0  0  0  0
   46.4206   -1.2213    0.2898 C   0  0  0  0  0  0  0  0  0  0  0  0
   47.0832   -0.0240   -0.0432 C   0  0  0  0  0  0  0  0  0  0  0  0
   46.4589    1.1908   -0.3830 C   0  0  0  0  0  0  0  0  0  0  0  0
   47.1059    2.4084   -0.7177 C   0  0  0  0  0  0  0  0  0  0  0  0
   46.1407    3.3296   -1.0207 C   0  0  0  0  0  0  0  0  0  0  0  0
   44.8744    2.6972   -0.8897 C   0  0  0  0  0  0  0  0  0  0  0  0
   43.6172    3.2697   -1.1171 C   0  0  0  0  0  0  0  0  0  0  0  0
   43.6113    4.6748   -1.5983 C   0  0  0  0  0  0  0  0  0  0  0  0
   43.0177    5.6794   -0.8345 C   0  0  0  0  0  0  0  0  0  0  0  0
   43.0066    6.9947   -1.2845 C   0  0  0  0  0  0  0  0  0  0  0  0
   42.3840    8.0812   -0.4499 C   0  0  0  0  0  0  0  0  0  0  0  0
   43.5930    7.3023   -2.5093 C   0  0  0  0  0  0  0  0  0  0  0  0
   44.1864    6.3112   -3.2840 C   0  0  0  0  0  0  0  0  0  0  0  0
   44.8295    6.6515   -4.6014 C   0  0  0  0  0  0  0  0  0  0  0  0
   44.1959    4.9990   -2.8212 C   0  0  0  0  0  0  0  0  0  0  0  0
   42.3884    2.6323   -0.9405 C   0  0  0  0  0  0  0  0  0  0  0  0
   41.1093    3.2470   -1.2479 C   0  0  0  0  0  0  0  0  0  0  0  0
   40.1635    2.3341   -0.9447 C   0  0  0  0  0  0  0  0  0  0  0  0
   40.8652    1.1611   -0.4623 C   0  0  0  0  0  0  0  0  0  0  0  0
   42.1988    1.3644   -0.4820 N   0  0  0  0  0  0  0  0  0  0  0  0
   45.1174    1.4101   -0.4902 N   0  0  0  0  0  0  0  0  0  0  0  0
   43.6772   -4.7140    1.4925 C   0  0  0  0  0  0  0  0  0  0  0  0
   43.1064   -5.7256    0.7223 C   0  0  0  0  0  0  0  0  0  0  0  0
   43.1167   -7.0438    1.1674 C   0  0  0  0  0  0  0  0  0  0  0  0
   42.4903   -8.1277    0.3320 C   0  0  0  0  0  0  0  0  0  0  0  0
   43.6948   -7.3438    2.3965 C   0  0  0  0  0  0  0  0  0  0  0  0
   44.2662   -6.3439    3.1788 C   0  0  0  0  0  0  0  0  0  0  0  0
   44.8695   -6.6787    4.5162 C   0  0  0  0  0  0  0  0  0  0  0  0
   44.2563   -5.0313    2.7207 C   0  0  0  0  0  0  0  0  0  0  0  0
   39.1125   -2.4948    0.9206 H   0  0  0  0  0  0  0  0  0  0  0  0
   40.9960   -4.2968    1.5089 H   0  0  0  0  0  0  0  0  0  0  0  0
   42.8871   -0.7819    0.1333 H   0  0  0  0  0  0  0  0  0  0  0  0
   46.3114   -4.3950    1.1884 H   0  0  0  0  0  0  0  0  0  0  0  0
   48.1943   -2.5656    0.6137 H   0  0  0  0  0  0  0  0  0  0  0  0
   48.1739    2.5539   -0.7252 H   0  0  0  0  0  0  0  0  0  0  0  0
   46.2904    4.3585   -1.3046 H   0  0  0  0  0  0  0  0  0  0  0  0
   42.5734    5.4287    0.1224 H   0  0  0  0  0  0  0  0  0  0  0  0
   43.1570    8.5994    0.1222 H   0  0  0  0  0  0  0  0  0  0  0  0
   41.8833    8.8150   -1.0823 H   0  0  0  0  0  0  0  0  0  0  0  0
   41.6601    7.6672    0.2520 H   0  0  0  0  0  0  0  0  0  0  0  0
   43.5826    8.3275   -2.8652 H   0  0  0  0  0  0  0  0  0  0  0  0
   44.6928    5.8421   -5.3192 H   0  0  0  0  0  0  0  0  0  0  0  0
   45.9024    6.8029   -4.4626 H   0  0  0  0  0  0  0  0  0  0  0  0
   44.4073    7.5668   -5.0164 H   0  0  0  0  0  0  0  0  0  0  0  0
   44.6418    4.2154   -3.4242 H   0  0  0  0  0  0  0  0  0  0  0  0
   40.9754    4.2366   -1.6537 H   0  0  0  0  0  0  0  0  0  0  0  0
   39.0934    2.4172   -1.0454 H   0  0  0  0  0  0  0  0  0  0  0  0
   44.3978    0.7193   -0.3050 H   0  0  0  0  0  0  0  0  0  0  0  0
   42.6707   -5.4821   -0.2406 H   0  0  0  0  0  0  0  0  0  0  0  0
   42.9186   -9.1010    0.5716 H   0  0  0  0  0  0  0  0  0  0  0  0
   42.6351   -7.9298   -0.7305 H   0  0  0  0  0  0  0  0  0  0  0  0
   41.4158   -8.1709    0.5247 H   0  0  0  0  0  0  0  0  0  0  0  0
   43.7043   -8.3702    2.7488 H   0  0  0  0  0  0  0  0  0  0  0  0
   45.6261   -5.9458    4.7965 H   0  0  0  0  0  0  0  0  0  0  0  0
   45.3257   -7.6689    4.4986 H   0  0  0  0  0  0  0  0  0  0  0  0
   44.0926   -6.6773    5.2843 H   0  0  0  0  0  0  0  0  0  0  0  0
   44.6898   -4.2419    3.3248 H   0  0  0  0  0  0  0  0  0  0  0  0
  1  2  4  0  0  0  0
  2  3  4  0  0  0  0
  3  4  2  0  0  0  0
  4  5  4  0  0  0  0
  2  6  4  0  0  0  0
  5  6  4  0  0  0  0
  5  7  4  0  0  0  0
  7  8  4  0  0  0  0
  8  9  1  0  0  0  0
  9 10  2  0  0  0  0
  8 11  4  0  0  0  0
 10 12  1  0  0  0  0
 11 12  4  0  0  0  0
 12 13  4  0  0  0  0
 13 14  4  0  0  0  0
 14 15  4  0  0  0  0
 15 16  2  0  0  0  0
 16 17  4  0  0  0  0
 17 18  4  0  0  0  0
 18 19  1  0  0  0  0
 19 20  4  0  0  0  0
 20 21  4  0  0  0  0
 21 22  1  0  0  0  0
 21 23  4  0  0  0  0
 23 24  4  0  0  0  0
 24 25  1  0  0  0  0
 19 26  4  0  0  0  0
 24 26  4  0  0  0  0
 18 27  4  0  0  0  0
 27 28  1  0  0  0  0
 28 29  2  0  0  0  0
  1 30  4  0  0  0  0
 29 30  1  0  0  0  0
 27 31  4  0  0  0  0
 30 31  4  0  0  0  0
 14 32  4  0  0  0  0
 17 32  4  0  0  0  0
  7 33  1  0  0  0  0
 33 34  4  0  0  0  0
 34 35  4  0  0  0  0
 35 36  1  0  0  0  0
 35 37  4  0  0  0  0
 37 38  4  0  0  0  0
 38 39  1  0  0  0  0
 33 40  4  0  0  0  0
 38 40  4  0  0  0  0
  1 41  1  0  0  0  0
  3 42  1  0  0  0  0
  4 43  1  0  0  0  0
  6 44  1  0  0  0  0
  9 45  1  0  0  0  0
 10 46  1  0  0  0  0
 15 47  1  0  0  0  0
 16 48  1  0  0  0  0
 20 49  1  0  0  0  0
 22 50  1  0  0  0  0
 22 51  1  0  0  0  0
 22 52  1  0  0  0  0
 23 53  1  0  0  0  0
 25 54  1  0  0  0  0
 25 55  1  0  0  0  0
 25 56  1  0  0  0  0
 26 57  1  0  0  0  0
 28 58  1  0  0  0  0
 29 59  1  0  0  0  0
 32 60  1  0  0  0  0
 34 61  1  0  0  0  0
 36 62  1  0  0  0  0
 36 63  1  0  0  0  0
 36 64  1  0  0  0  0
 37 65  1  0  0  0  0
 39 66  1  0  0  0  0
 39 67  1  0  0  0  0
 39 68  1  0  0  0  0
 40 69  1  0  0  0  0
 70 71  4  0  0  0  0
 71 72  4  0  0  0  0
 72 73  2  0  0  0  0
 73 74  4  0  0  0  0
 71 75  4  0  0  0  0
 74 75  4  0  0  0  0
 74 76  4  0  0  0  0
 76 77  4  0  0  0  0
 77 78  1  0  0  0  0
 78 79  2  0  0  0  0
 77 80  4  0  0  0  0
 79 81  1  0  0  0  0
 80 81  4  0  0  0  0
 81 82  4  0  0  0  0
 82 83  4  0  0  0  0
 83 84  4  0  0  0  0
 84 85  2  0  0  0  0
 85 86  4  0  0  0  0
 86 87  4  0  0  0  0
 87 88  1  0  0  0  0
 88 89  4  0  0  0  0
 89 90  4  0  0  0  0
 90 91  1  0  0  0  0
 90 92  4  0  0  0  0
 92 93  4  0  0  0  0
 93 94  1  0  0  0  0
 88 95  4  0  0  0  0
 93 95  4  0  0  0  0
 87 96  4  0  0  0  0
 96 97  1  0  0  0  0
 97 98  2  0  0  0  0
 70 99  4  0  0  0  0
 98 99  1  0  0  0  0
 96100  4  0  0  0  0
 99100  4  0  0  0  0
 83101  4  0  0  0  0
 86101  4  0  0  0  0
 76102  1  0  0  0  0
102103  4  0  0  0  0
103104  4  0  0  0  0
104105  1  0  0  0  0
104106  4  0  0  0  0
106107  4  0  0  0  0
107108  1  0  0  0  0
102109  4  0  0  0  0
107109  4  0  0  0  0
 70110  1  0  0  0  0
 72111  1  0  0  0  0
 73112  1  0  0  0  0
 75113  1  0  0  0  0
 78114  1  0  0  0  0
 79115  1  0  0  0  0
 84116  1  0  0  0  0
 85117  1  0  0  0  0
 89118  1  0  0  0  0
 91119  1  0  0  0  0
 91120  1  0  0  0  0
 91121  1  0  0  0  0
 92122  1  0  0  0  0
 94123  1  0  0  0  0
 94124  1  0  0  0  0
 94125  1  0  0  0  0
 95126  1  0  0  0  0
 97127  1  0  0  0  0
 98128  1  0  0  0  0
101129  1  0  0  0  0
103130  1  0  0  0  0
105131  1  0  0  0  0
105132  1  0  0  0  0
105133  1  0  0  0  0
106134  1  0  0  0  0
108135  1  0  0  0  0
108136  1  0  0  0  0
108137  1  0  0  0  0
109138  1  0  0  0  0
 13139  4  0  0  0  0
139140  3  0  0  0  0
 82142  4  0  0  0  0
141142  3  0  0  0  0
140143  4  0  0  0  0
143144  4  0  0  0  0
144145  4  0  0  0  0
145146  2  0  0  0  0
146147  4  0  0  0  0
144148  4  0  0  0  0
147148  4  0  0  0  0
147149  4  0  0  0  0
149150  4  0  0  0  0
150151  1  0  0  0  0
151152  2  0  0  0  0
150153  4  0  0  0  0
152154  1  0  0  0  0
153154  4  0  0  0  0
141155  4  0  0  0  0
154155  4  0  0  0  0
155156  4  0  0  0  0
156157  4  0  0  0  0
157158  2  0  0  0  0
158159  4  0  0  0  0
159160  4  0  0  0  0
160161  1  0  0  0  0
161162  4  0  0  0  0
162163  4  0  0  0  0
163164  1  0  0  0  0
163165  4  0  0  0  0
165166  4  0  0  0  0
166167  1  0  0  0  0
161168  4  0  0  0  0
166168  4  0  0  0  0
160169  4  0  0  0  0
169170  1  0  0  0  0
170171  2  0  0  0  0
143172  4  0  0  0  0
171172  1  0  0  0  0
169173  4  0  0  0  0
172173  4  0  0  0  0
156174  4  0  0  0  0
159174  4  0  0  0  0
149175  1  0  0  0  0
175176  4  0  0  0  0
176177  4  0  0  0  0
177178  1  0  0  0  0
177179  4  0  0  0  0
179180  4  0  0  0  0
180181  1  0  0  0  0
175182  4  0  0  0  0
180182  4  0  0  0  0
145183  1  0  0  0  0
146184  1  0  0  0  0
148185  1  0  0  0  0
151186  1  0  0  0  0
152187  1  0  0  0  0
157188  1  0  0  0  0
158189  1  0  0  0  0
162190  1  0  0  0  0
164191  1  0  0  0  0
164192  1  0  0  0  0
164193  1  0  0  0  0
165194  1  0  0  0  0
167195  1  0  0  0  0
167196  1  0  0  0  0
167197  1  0  0  0  0
168198  1  0  0  0  0
170199  1  0  0  0  0
171200  1  0  0  0  0
174201  1  0  0  0  0
176202  1  0  0  0  0
178203  1  0  0  0  0
178204  1  0  0  0  0
178205  1  0  0  0  0
179206  1  0  0  0  0
181207  1  0  0  0  0
181208  1  0  0  0  0
181209  1  0  0  0  0
182210  1  0  0  0  0
M  END
