 xtb: 6.5.1 (b24c23e)
          07272205373D

288322  0     0  0            999 V2000
   49.6351    0.0528    0.0351 C   0  0  0  0  0  0  0  0  0  0  0  0
   50.2438    1.2815    0.2556 C   0  0  0  0  0  0  0  0  0  0  0  0
   49.5912    2.5308    0.4537 C   0  0  0  0  0  0  0  0  0  0  0  0
   50.5528    3.4841    0.6362 C   0  0  0  0  0  0  0  0  0  0  0  0
   51.8242    2.8459    0.5661 C   0  0  0  0  0  0  0  0  0  0  0  0
   51.5869    1.5222    0.3269 N   0  0  0  0  0  0  0  0  0  0  0  0
   53.0875    3.4359    0.6877 C   0  0  0  0  0  0  0  0  0  0  0  0
   53.1172    4.8915    0.9645 C   0  0  0  0  0  0  0  0  0  0  0  0
   53.7251    5.7845    0.0827 C   0  0  0  0  0  0  0  0  0  0  0  0
   53.7236    7.1376    0.3826 C   0  0  0  0  0  0  0  0  0  0  0  0
   53.1682    7.6353    1.4828 N   0  0  0  0  0  0  0  0  0  0  0  0
   52.5888    6.7910    2.3301 C   0  0  0  0  0  0  0  0  0  0  0  0
   52.5357    5.4227    2.1154 C   0  0  0  0  0  0  0  0  0  0  0  0
   54.3041    2.7593    0.5711 C   0  0  0  0  0  0  0  0  0  0  0  0
   55.6012    3.3841    0.7602 C   0  0  0  0  0  0  0  0  0  0  0  0
   56.5222    2.4161    0.5748 C   0  0  0  0  0  0  0  0  0  0  0  0
   54.4591    1.4351    0.2953 N   0  0  0  0  0  0  0  0  0  0  0  0
   55.7867    1.2007    0.2828 C   0  0  0  0  0  0  0  0  0  0  0  0
   56.4241   -0.0313    0.0322 C   0  0  0  0  0  0  0  0  0  0  0  0
   55.7898   -1.2621   -0.2210 C   0  0  0  0  0  0  0  0  0  0  0  0
   56.4355   -2.4951   -0.5030 C   0  0  0  0  0  0  0  0  0  0  0  0
   55.4693   -3.4440   -0.6920 C   0  0  0  0  0  0  0  0  0  0  0  0
   54.2025   -2.8197   -0.5214 C   0  0  0  0  0  0  0  0  0  0  0  0
   54.4483   -1.5007   -0.2456 N   0  0  0  0  0  0  0  0  0  0  0  0
   52.9402   -3.4110   -0.6387 C   0  0  0  0  0  0  0  0  0  0  0  0
   52.9091   -4.8633   -0.9303 C   0  0  0  0  0  0  0  0  0  0  0  0
   53.4728   -5.7915   -0.0553 C   0  0  0  0  0  0  0  0  0  0  0  0
   53.4174   -7.1396   -0.3721 C   0  0  0  0  0  0  0  0  0  0  0  0
   52.8533   -7.6000   -1.4840 N   0  0  0  0  0  0  0  0  0  0  0  0
   52.3155   -6.7219   -2.3246 C   0  0  0  0  0  0  0  0  0  0  0  0
   52.3161   -5.3556   -2.0926 C   0  0  0  0  0  0  0  0  0  0  0  0
   51.7229   -2.7362   -0.5004 C   0  0  0  0  0  0  0  0  0  0  0  0
   50.4189   -3.3773   -0.5714 C   0  0  0  0  0  0  0  0  0  0  0  0
   49.5046   -2.4052   -0.3813 C   0  0  0  0  0  0  0  0  0  0  0  0
   50.2487   -1.1732   -0.1858 C   0  0  0  0  0  0  0  0  0  0  0  0
   51.5813   -1.4120   -0.2563 N   0  0  0  0  0  0  0  0  0  0  0  0
   48.5498    0.0614    0.0362 H   0  0  0  0  0  0  0  0  0  0  0  0
   48.5219    2.6695    0.4482 H   0  0  0  0  0  0  0  0  0  0  0  0
   50.4009    4.5391    0.7965 H   0  0  0  0  0  0  0  0  0  0  0  0
   52.3126    0.8223    0.2142 H   0  0  0  0  0  0  0  0  0  0  0  0
   54.1787    5.4258   -0.8336 H   0  0  0  0  0  0  0  0  0  0  0  0
   54.1877    7.8523   -0.2907 H   0  0  0  0  0  0  0  0  0  0  0  0
   52.1468    7.2269    3.2213 H   0  0  0  0  0  0  0  0  0  0  0  0
   52.0648    4.7716    2.8423 H   0  0  0  0  0  0  0  0  0  0  0  0
   55.7632    4.4188    1.0151 H   0  0  0  0  0  0  0  0  0  0  0  0
   57.5964    2.4894    0.6331 H   0  0  0  0  0  0  0  0  0  0  0  0
   57.5039   -2.6276   -0.5591 H   0  0  0  0  0  0  0  0  0  0  0  0
   55.6176   -4.4828   -0.9379 H   0  0  0  0  0  0  0  0  0  0  0  0
   53.7256   -0.8052   -0.0917 H   0  0  0  0  0  0  0  0  0  0  0  0
   53.9318   -5.4638    0.8699 H   0  0  0  0  0  0  0  0  0  0  0  0
   53.8450   -7.8812    0.2964 H   0  0  0  0  0  0  0  0  0  0  0  0
   51.8642   -7.1283   -3.2251 H   0  0  0  0  0  0  0  0  0  0  0  0
   51.8767   -4.6761   -2.8131 H   0  0  0  0  0  0  0  0  0  0  0  0
   50.2517   -4.4303   -0.7317 H   0  0  0  0  0  0  0  0  0  0  0  0
   48.4289   -2.4837   -0.3625 H   0  0  0  0  0  0  0  0  0  0  0  0
  110.2071   -0.0618    0.0237 C   0  0  0  0  0  0  0  0  0  0  0  0
  109.5954   -1.2595   -0.3229 C   0  0  0  0  0  0  0  0  0  0  0  0
  110.2443   -2.4680   -0.7027 C   0  0  0  0  0  0  0  0  0  0  0  0
  109.2801   -3.4032   -0.9531 C   0  0  0  0  0  0  0  0  0  0  0  0
  108.0109   -2.7993   -0.7228 C   0  0  0  0  0  0  0  0  0  0  0  0
  108.2518   -1.5058   -0.3561 N   0  0  0  0  0  0  0  0  0  0  0  0
  106.7460   -3.3837   -0.8546 C   0  0  0  0  0  0  0  0  0  0  0  0
  106.7104   -4.8124   -1.2458 C   0  0  0  0  0  0  0  0  0  0  0  0
  106.0787   -5.2246   -2.4190 C   0  0  0  0  0  0  0  0  0  0  0  0
  106.0755   -6.5707   -2.7484 C   0  0  0  0  0  0  0  0  0  0  0  0
  106.6481   -7.5028   -1.9933 N   0  0  0  0  0  0  0  0  0  0  0  0
  107.2496   -7.1192   -0.8719 C   0  0  0  0  0  0  0  0  0  0  0  0
  107.3091   -5.7970   -0.4603 C   0  0  0  0  0  0  0  0  0  0  0  0
  105.5318   -2.7245   -0.6472 C   0  0  0  0  0  0  0  0  0  0  0  0
  104.2344   -3.3724   -0.7210 C   0  0  0  0  0  0  0  0  0  0  0  0
  103.3157   -2.4179   -0.4668 C   0  0  0  0  0  0  0  0  0  0  0  0
  105.3798   -1.4086   -0.3329 N   0  0  0  0  0  0  0  0  0  0  0  0
  104.0530   -1.1916   -0.2307 C   0  0  0  0  0  0  0  0  0  0  0  0
  103.4179    0.0368    0.0429 C   0  0  0  0  0  0  0  0  0  0  0  0
  104.0558    1.2611    0.3184 C   0  0  0  0  0  0  0  0  0  0  0  0
  103.4146    2.5023    0.5727 C   0  0  0  0  0  0  0  0  0  0  0  0
  104.3835    3.4346    0.8219 C   0  0  0  0  0  0  0  0  0  0  0  0
  105.6472    2.7875    0.7348 C   0  0  0  0  0  0  0  0  0  0  0  0
  105.3974    1.4786    0.4175 N   0  0  0  0  0  0  0  0  0  0  0  0
  106.9107    3.3616    0.9112 C   0  0  0  0  0  0  0  0  0  0  0  0
  106.9448    4.7939    1.2882 C   0  0  0  0  0  0  0  0  0  0  0  0
  106.3567    5.2460    2.4693 C   0  0  0  0  0  0  0  0  0  0  0  0
  106.4172    6.5948    2.7818 C   0  0  0  0  0  0  0  0  0  0  0  0
  107.0085    7.4934    2.0011 N   0  0  0  0  0  0  0  0  0  0  0  0
  107.5691    7.0716    0.8721 C   0  0  0  0  0  0  0  0  0  0  0  0
  107.5656    5.7433    0.4770 C   0  0  0  0  0  0  0  0  0  0  0  0
  108.1261    2.6858    0.7615 C   0  0  0  0  0  0  0  0  0  0  0  0
  109.4309    3.2843    0.9981 C   0  0  0  0  0  0  0  0  0  0  0  0
  110.3428    2.3239    0.7469 C   0  0  0  0  0  0  0  0  0  0  0  0
  109.5963    1.1368    0.3681 C   0  0  0  0  0  0  0  0  0  0  0  0
  108.2647    1.3890    0.3976 N   0  0  0  0  0  0  0  0  0  0  0  0
  111.2924   -0.0728    0.0217 H   0  0  0  0  0  0  0  0  0  0  0  0
  111.3130   -2.5906   -0.7773 H   0  0  0  0  0  0  0  0  0  0  0  0
  109.4291   -4.4204   -1.2771 H   0  0  0  0  0  0  0  0  0  0  0  0
  107.5281   -0.8275   -0.1429 H   0  0  0  0  0  0  0  0  0  0  0  0
  105.6105   -4.4983   -3.0725 H   0  0  0  0  0  0  0  0  0  0  0  0
  105.5934   -6.9146   -3.6588 H   0  0  0  0  0  0  0  0  0  0  0  0
  107.7048   -7.9037   -0.2743 H   0  0  0  0  0  0  0  0  0  0  0  0
  107.7982   -5.5340    0.4701 H   0  0  0  0  0  0  0  0  0  0  0  0
  104.0711   -4.4182   -0.9242 H   0  0  0  0  0  0  0  0  0  0  0  0
  102.2421   -2.5104   -0.4297 H   0  0  0  0  0  0  0  0  0  0  0  0
  102.3472    2.6538    0.5600 H   0  0  0  0  0  0  0  0  0  0  0  0
  104.2392    4.4806    1.0377 H   0  0  0  0  0  0  0  0  0  0  0  0
  106.1176    0.7779    0.2757 H   0  0  0  0  0  0  0  0  0  0  0  0
  105.8750    4.5478    3.1436 H   0  0  0  0  0  0  0  0  0  0  0  0
  105.9713    6.9691    3.6987 H   0  0  0  0  0  0  0  0  0  0  0  0
  108.0423    7.8295    0.2546 H   0  0  0  0  0  0  0  0  0  0  0  0
  108.0244    5.4477   -0.4590 H   0  0  0  0  0  0  0  0  0  0  0  0
  109.6001    4.2980    1.3238 H   0  0  0  0  0  0  0  0  0  0  0  0
  111.4182    2.3800    0.8105 H   0  0  0  0  0  0  0  0  0  0  0  0
   59.0525   -0.0604    0.0314 C   0  0  0  0  0  0  0  0  0  0  0  0
   57.8304   -0.0465    0.0324 C   0  0  0  0  0  0  0  0  0  0  0  0
   60.4018   -0.0662    0.0301 C   0  0  0  0  0  0  0  0  0  0  0  0
   61.6241   -0.0650    0.0295 C   0  0  0  0  0  0  0  0  0  0  0  0
   72.5159   -0.0034    0.0087 C   0  0  0  0  0  0  0  0  0  0  0  0
   71.2933   -0.0095    0.0211 C   0  0  0  0  0  0  0  0  0  0  0  0
   73.8640   -0.0022   -0.0078 C   0  0  0  0  0  0  0  0  0  0  0  0
   75.0866   -0.0015   -0.0260 C   0  0  0  0  0  0  0  0  0  0  0  0
   85.9769    0.0058   -0.0329 C   0  0  0  0  0  0  0  0  0  0  0  0
   84.7541    0.0001   -0.0429 C   0  0  0  0  0  0  0  0  0  0  0  0
   87.3251    0.0092   -0.0217 C   0  0  0  0  0  0  0  0  0  0  0  0
   88.5478    0.0167   -0.0138 C   0  0  0  0  0  0  0  0  0  0  0  0
   99.4404    0.0716    0.0357 C   0  0  0  0  0  0  0  0  0  0  0  0
   98.2181    0.0669    0.0299 C   0  0  0  0  0  0  0  0  0  0  0  0
  100.7897    0.0670    0.0410 C   0  0  0  0  0  0  0  0  0  0  0  0
  102.0119    0.0543    0.0428 C   0  0  0  0  0  0  0  0  0  0  0  0
   63.0295   -0.0591    0.0293 C   0  0  0  0  0  0  0  0  0  0  0  0
   63.6614   -1.2936    0.2729 C   0  0  0  0  0  0  0  0  0  0  0  0
   63.0180   -2.5284    0.5456 C   0  0  0  0  0  0  0  0  0  0  0  0
   63.9872   -3.4781    0.7212 C   0  0  0  0  0  0  0  0  0  0  0  0
   65.2512   -2.8505    0.5515 C   0  0  0  0  0  0  0  0  0  0  0  0
   65.0037   -1.5296    0.2903 N   0  0  0  0  0  0  0  0  0  0  0  0
   66.5142   -3.4468    0.6525 C   0  0  0  0  0  0  0  0  0  0  0  0
   66.5338   -4.9054    0.9196 C   0  0  0  0  0  0  0  0  0  0  0  0
   67.1102   -5.4216    2.0795 C   0  0  0  0  0  0  0  0  0  0  0  0
   67.1012   -6.7920    2.2861 C   0  0  0  0  0  0  0  0  0  0  0  0
   66.5690   -7.6513    1.4230 N   0  0  0  0  0  0  0  0  0  0  0  0
   66.0204   -7.1678    0.3132 C   0  0  0  0  0  0  0  0  0  0  0  0
   65.9757   -5.8137    0.0208 C   0  0  0  0  0  0  0  0  0  0  0  0
   67.7369   -2.7879    0.5200 C   0  0  0  0  0  0  0  0  0  0  0  0
   69.0257   -3.4545    0.5750 C   0  0  0  0  0  0  0  0  0  0  0  0
   69.9592   -2.4964    0.4003 C   0  0  0  0  0  0  0  0  0  0  0  0
   67.9087   -1.4550    0.2991 N   0  0  0  0  0  0  0  0  0  0  0  0
   69.2390   -1.2496    0.2312 C   0  0  0  0  0  0  0  0  0  0  0  0
   69.8892   -0.0152    0.0292 C   0  0  0  0  0  0  0  0  0  0  0  0
   69.2568    1.2271   -0.1725 C   0  0  0  0  0  0  0  0  0  0  0  0
   69.9003    2.4790   -0.3502 C   0  0  0  0  0  0  0  0  0  0  0  0
   68.9312    3.4288   -0.5256 C   0  0  0  0  0  0  0  0  0  0  0  0
   67.6673    2.7808   -0.4684 C   0  0  0  0  0  0  0  0  0  0  0  0
   67.9150    1.4530   -0.2438 N   0  0  0  0  0  0  0  0  0  0  0  0
   66.4047    3.3726   -0.5923 C   0  0  0  0  0  0  0  0  0  0  0  0
   66.3850    4.8307   -0.8620 C   0  0  0  0  0  0  0  0  0  0  0  0
   65.8030    5.7255    0.0351 C   0  0  0  0  0  0  0  0  0  0  0  0
   65.8118    7.0796   -0.2599 C   0  0  0  0  0  0  0  0  0  0  0  0
   66.3495    7.5757   -1.3696 N   0  0  0  0  0  0  0  0  0  0  0  0
   66.9039    6.7294   -2.2313 C   0  0  0  0  0  0  0  0  0  0  0  0
   66.9490    5.3600   -2.0222 C   0  0  0  0  0  0  0  0  0  0  0  0
   65.1818    2.7083   -0.4872 C   0  0  0  0  0  0  0  0  0  0  0  0
   63.8932    3.3507   -0.6753 C   0  0  0  0  0  0  0  0  0  0  0  0
   62.9595    2.3932   -0.4988 C   0  0  0  0  0  0  0  0  0  0  0  0
   63.6793    1.1675   -0.2132 C   0  0  0  0  0  0  0  0  0  0  0  0
   65.0101    1.3841   -0.2210 N   0  0  0  0  0  0  0  0  0  0  0  0
   61.9500   -2.6628    0.6045 H   0  0  0  0  0  0  0  0  0  0  0  0
   63.8416   -4.5195    0.9571 H   0  0  0  0  0  0  0  0  0  0  0  0
   65.7211   -0.8284    0.1395 H   0  0  0  0  0  0  0  0  0  0  0  0
   67.5454   -4.7575    2.8167 H   0  0  0  0  0  0  0  0  0  0  0  0
   67.5395   -7.2174    3.1842 H   0  0  0  0  0  0  0  0  0  0  0  0
   65.5976   -7.8947   -0.3742 H   0  0  0  0  0  0  0  0  0  0  0  0
   65.5289   -5.4660   -0.9030 H   0  0  0  0  0  0  0  0  0  0  0  0
   69.1739   -4.5130    0.7144 H   0  0  0  0  0  0  0  0  0  0  0  0
   71.0324   -2.5980    0.3770 H   0  0  0  0  0  0  0  0  0  0  0  0
   70.9682    2.6262   -0.3384 H   0  0  0  0  0  0  0  0  0  0  0  0
   69.0768    4.4865   -0.6726 H   0  0  0  0  0  0  0  0  0  0  0  0
   67.1976    0.7430   -0.1420 H   0  0  0  0  0  0  0  0  0  0  0  0
   65.3635    5.3669    0.9582 H   0  0  0  0  0  0  0  0  0  0  0  0
   65.3693    7.7964    0.4255 H   0  0  0  0  0  0  0  0  0  0  0  0
   67.3310    7.1643   -3.1302 H   0  0  0  0  0  0  0  0  0  0  0  0
   67.4006    4.7066   -2.7593 H   0  0  0  0  0  0  0  0  0  0  0  0
   63.7455    4.3894   -0.9221 H   0  0  0  0  0  0  0  0  0  0  0  0
   61.8865    2.4798   -0.5588 H   0  0  0  0  0  0  0  0  0  0  0  0
   76.4906   -0.0045   -0.0420 C   0  0  0  0  0  0  0  0  0  0  0  0
   77.1163   -1.2386    0.2216 C   0  0  0  0  0  0  0  0  0  0  0  0
   76.4663   -2.4644    0.5175 C   0  0  0  0  0  0  0  0  0  0  0  0
   77.4299   -3.4202    0.6911 C   0  0  0  0  0  0  0  0  0  0  0  0
   78.6967   -2.8050    0.4984 C   0  0  0  0  0  0  0  0  0  0  0  0
   78.4565   -1.4849    0.2258 N   0  0  0  0  0  0  0  0  0  0  0  0
   79.9559   -3.4105    0.5903 C   0  0  0  0  0  0  0  0  0  0  0  0
   79.9659   -4.8674    0.8666 C   0  0  0  0  0  0  0  0  0  0  0  0
   80.5507   -5.3816    2.0232 C   0  0  0  0  0  0  0  0  0  0  0  0
   80.5308   -6.7506    2.2389 C   0  0  0  0  0  0  0  0  0  0  0  0
   79.9801   -7.6101    1.3878 N   0  0  0  0  0  0  0  0  0  0  0  0
   79.4228   -7.1285    0.2815 C   0  0  0  0  0  0  0  0  0  0  0  0
   79.3880   -5.7760   -0.0194 C   0  0  0  0  0  0  0  0  0  0  0  0
   81.1823   -2.7611    0.4449 C   0  0  0  0  0  0  0  0  0  0  0  0
   82.4672   -3.4351    0.4991 C   0  0  0  0  0  0  0  0  0  0  0  0
   83.4061   -2.4826    0.3223 C   0  0  0  0  0  0  0  0  0  0  0  0
   81.3615   -1.4300    0.2185 N   0  0  0  0  0  0  0  0  0  0  0  0
   82.6930   -1.2322    0.1503 C   0  0  0  0  0  0  0  0  0  0  0  0
   83.3500   -0.0015   -0.0530 C   0  0  0  0  0  0  0  0  0  0  0  0
   82.7242    1.2414   -0.2713 C   0  0  0  0  0  0  0  0  0  0  0  0
   83.3742    2.4886   -0.4582 C   0  0  0  0  0  0  0  0  0  0  0  0
   82.4104    3.4399   -0.6542 C   0  0  0  0  0  0  0  0  0  0  0  0
   81.1436    2.7978   -0.6003 C   0  0  0  0  0  0  0  0  0  0  0  0
   81.3839    1.4719   -0.3573 N   0  0  0  0  0  0  0  0  0  0  0  0
   79.8842    3.3936   -0.7424 C   0  0  0  0  0  0  0  0  0  0  0  0
   79.8727    4.8472   -1.0342 C   0  0  0  0  0  0  0  0  0  0  0  0
   79.2791    5.7567   -0.1596 C   0  0  0  0  0  0  0  0  0  0  0  0
   79.2955    7.1063   -0.4745 C   0  0  0  0  0  0  0  0  0  0  0  0
   79.8513    7.5848   -1.5830 N   0  0  0  0  0  0  0  0  0  0  0  0
   80.4169    6.7245   -2.4235 C   0  0  0  0  0  0  0  0  0  0  0  0
   80.4557    5.3582   -2.1934 C   0  0  0  0  0  0  0  0  0  0  0  0
   78.6578    2.7371   -0.6318 C   0  0  0  0  0  0  0  0  0  0  0  0
   77.3727    3.3810   -0.8369 C   0  0  0  0  0  0  0  0  0  0  0  0
   76.4340    2.4329   -0.6371 C   0  0  0  0  0  0  0  0  0  0  0  0
   77.1473    1.2110   -0.3220 C   0  0  0  0  0  0  0  0  0  0  0  0
   78.4789    1.4197   -0.3361 N   0  0  0  0  0  0  0  0  0  0  0  0
   75.3981   -2.5896    0.5906 H   0  0  0  0  0  0  0  0  0  0  0  0
   77.2787   -4.4578    0.9400 H   0  0  0  0  0  0  0  0  0  0  0  0
   79.1773   -0.7912    0.0573 H   0  0  0  0  0  0  0  0  0  0  0  0
   81.0003   -4.7170    2.7512 H   0  0  0  0  0  0  0  0  0  0  0  0
   80.9753   -7.1744    3.1347 H   0  0  0  0  0  0  0  0  0  0  0  0
   78.9848   -7.8557   -0.3959 H   0  0  0  0  0  0  0  0  0  0  0  0
   78.9333   -5.4299   -0.9400 H   0  0  0  0  0  0  0  0  0  0  0  0
   82.6092   -4.4941    0.6404 H   0  0  0  0  0  0  0  0  0  0  0  0
   84.4786   -2.5905    0.2982 H   0  0  0  0  0  0  0  0  0  0  0  0
   84.4424    2.6319   -0.4388 H   0  0  0  0  0  0  0  0  0  0  0  0
   82.5618    4.4951   -0.8125 H   0  0  0  0  0  0  0  0  0  0  0  0
   80.6629    0.7660   -0.2522 H   0  0  0  0  0  0  0  0  0  0  0  0
   78.8249    5.4129    0.7620 H   0  0  0  0  0  0  0  0  0  0  0  0
   78.8435    7.8340    0.1931 H   0  0  0  0  0  0  0  0  0  0  0  0
   80.8600    7.1453   -3.3214 H   0  0  0  0  0  0  0  0  0  0  0  0
   80.9172    4.6932   -2.9137 H   0  0  0  0  0  0  0  0  0  0  0  0
   77.2300    4.4140   -1.1097 H   0  0  0  0  0  0  0  0  0  0  0  0
   75.3613    2.5235   -0.6997 H   0  0  0  0  0  0  0  0  0  0  0  0
   89.9520    0.0223   -0.0081 C   0  0  0  0  0  0  0  0  0  0  0  0
   90.5828   -1.2094    0.2545 C   0  0  0  0  0  0  0  0  0  0  0  0
   89.9383   -2.4397    0.5445 C   0  0  0  0  0  0  0  0  0  0  0  0
   90.9063   -3.3913    0.7160 C   0  0  0  0  0  0  0  0  0  0  0  0
   92.1705   -2.7697    0.5261 C   0  0  0  0  0  0  0  0  0  0  0  0
   91.9242   -1.4491    0.2611 N   0  0  0  0  0  0  0  0  0  0  0  0
   93.4323   -3.3714    0.6047 C   0  0  0  0  0  0  0  0  0  0  0  0
   93.4513   -4.8301    0.8691 C   0  0  0  0  0  0  0  0  0  0  0  0
   94.0572   -5.3497    2.0126 C   0  0  0  0  0  0  0  0  0  0  0  0
   94.0465   -6.7199    2.2198 C   0  0  0  0  0  0  0  0  0  0  0  0
   93.4852   -7.5763    1.3724 N   0  0  0  0  0  0  0  0  0  0  0  0
   92.9083   -7.0899    0.2784 C   0  0  0  0  0  0  0  0  0  0  0  0
   92.8632   -5.7356   -0.0133 C   0  0  0  0  0  0  0  0  0  0  0  0
   94.6557   -2.7161    0.4557 C   0  0  0  0  0  0  0  0  0  0  0  0
   95.9423   -3.3888    0.4802 C   0  0  0  0  0  0  0  0  0  0  0  0
   96.8777   -2.4308    0.3158 C   0  0  0  0  0  0  0  0  0  0  0  0
   94.8299   -1.3805    0.2572 N   0  0  0  0  0  0  0  0  0  0  0  0
   96.1610   -1.1778    0.1829 C   0  0  0  0  0  0  0  0  0  0  0  0
   96.8129    0.0610    0.0212 C   0  0  0  0  0  0  0  0  0  0  0  0
   96.1817    1.3074   -0.1549 C   0  0  0  0  0  0  0  0  0  0  0  0
   96.8250    2.5631   -0.3038 C   0  0  0  0  0  0  0  0  0  0  0  0
   95.8569    3.5125   -0.4880 C   0  0  0  0  0  0  0  0  0  0  0  0
   94.5940    2.8607   -0.4639 C   0  0  0  0  0  0  0  0  0  0  0  0
   94.8405    1.5317   -0.2471 N   0  0  0  0  0  0  0  0  0  0  0  0
   93.3329    3.4505   -0.6150 C   0  0  0  0  0  0  0  0  0  0  0  0
   93.3181    4.9067   -0.8944 C   0  0  0  0  0  0  0  0  0  0  0  0
   92.7147    5.8091   -0.0194 C   0  0  0  0  0  0  0  0  0  0  0  0
   92.7300    7.1605   -0.3265 C   0  0  0  0  0  0  0  0  0  0  0  0
   93.2927    7.6471   -1.4280 N   0  0  0  0  0  0  0  0  0  0  0  0
   93.8676    6.7934   -2.2689 C   0  0  0  0  0  0  0  0  0  0  0  0
   93.9089    5.4262   -2.0459 C   0  0  0  0  0  0  0  0  0  0  0  0
   92.1094    2.7851   -0.5316 C   0  0  0  0  0  0  0  0  0  0  0  0
   90.8233    3.4240   -0.7454 C   0  0  0  0  0  0  0  0  0  0  0  0
   89.8879    2.4672   -0.5733 C   0  0  0  0  0  0  0  0  0  0  0  0
   90.6047    1.2451   -0.2656 C   0  0  0  0  0  0  0  0  0  0  0  0
   91.9348    1.4624   -0.2575 N   0  0  0  0  0  0  0  0  0  0  0  0
   88.8706   -2.5701    0.6160 H   0  0  0  0  0  0  0  0  0  0  0  0
   90.7595   -4.4304    0.9613 H   0  0  0  0  0  0  0  0  0  0  0  0
   92.6421   -0.7514    0.0968 H   0  0  0  0  0  0  0  0  0  0  0  0
   94.5164   -4.6879    2.7372 H   0  0  0  0  0  0  0  0  0  0  0  0
   94.5075   -7.1475    3.1054 H   0  0  0  0  0  0  0  0  0  0  0  0
   92.4624   -7.8145   -0.3966 H   0  0  0  0  0  0  0  0  0  0  0  0
   92.3929   -5.3860   -0.9247 H   0  0  0  0  0  0  0  0  0  0  0  0
   96.0876   -4.4508    0.5937 H   0  0  0  0  0  0  0  0  0  0  0  0
   97.9501   -2.5361    0.2774 H   0  0  0  0  0  0  0  0  0  0  0  0
   97.8920    2.7127   -0.2698 H   0  0  0  0  0  0  0  0  0  0  0  0
   96.0023    4.5721   -0.6203 H   0  0  0  0  0  0  0  0  0  0  0  0
   94.1232    0.8185   -0.1683 H   0  0  0  0  0  0  0  0  0  0  0  0
   92.2539    5.4589    0.8964 H   0  0  0  0  0  0  0  0  0  0  0  0
   92.2708    7.8832    0.3416 H   0  0  0  0  0  0  0  0  0  0  0  0
   94.3155    7.2205   -3.1614 H   0  0  0  0  0  0  0  0  0  0  0  0
   94.3785    4.7664   -2.7658 H   0  0  0  0  0  0  0  0  0  0  0  0
   90.6780    4.4603   -1.0037 H   0  0  0  0  0  0  0  0  0  0  0  0
   88.8157    2.5520   -0.6494 H   0  0  0  0  0  0  0  0  0  0  0  0
  1  2  4  0  0  0  0
  2  3  4  0  0  0  0
  3  4  2  0  0  0  0
  4  5  4  0  0  0  0
  2  6  4  0  0  0  0
  5  6  4  0  0  0  0
  5  7  4  0  0  0  0
  7  8  1  0  0  0  0
  8  9  4  0  0  0  0
  9 10  4  0  0  0  0
 10 11  4  0  0  0  0
 11 12  4  0  0  0  0
  8 13  4  0  0  0  0
 12 13  4  0  0  0  0
  7 14  4  0  0  0  0
 14 15  1  0  0  0  0
 15 16  2  0  0  0  0
 14 17  4  0  0  0  0
 16 18  1  0  0  0  0
 17 18  4  0  0  0  0
 18 19  4  0  0  0  0
 19 20  4  0  0  0  0
 20 21  4  0  0  0  0
 21 22  2  0  0  0  0
 22 23  4  0  0  0  0
 20 24  4  0  0  0  0
 23 24  4  0  0  0  0
 23 25  4  0  0  0  0
 25 26  1  0  0  0  0
 26 27  4  0  0  0  0
 27 28  4  0  0  0  0
 28 29  4  0  0  0  0
 29 30  4  0  0  0  0
 26 31  4  0  0  0  0
 30 31  4  0  0  0  0
 25 32  4  0  0  0  0
 32 33  1  0  0  0  0
 33 34  2  0  0  0  0
  1 35  4  0  0  0  0
 34 35  1  0  0  0  0
 32 36  4  0  0  0  0
 35 36  4  0  0  0  0
  1 37  1  0  0  0  0
  3 38  1  0  0  0  0
  4 39  1  0  0  0  0
  6 40  1  0  0  0  0
  9 41  1  0  0  0  0
 10 42  1  0  0  0  0
 12 43  1  0  0  0  0
 13 44  1  0  0  0  0
 15 45  1  0  0  0  0
 16 46  1  0  0  0  0
 21 47  1  0  0  0  0
 22 48  1  0  0  0  0
 24 49  1  0  0  0  0
 27 50  1  0  0  0  0
 28 51  1  0  0  0  0
 30 52  1  0  0  0  0
 31 53  1  0  0  0  0
 33 54  1  0  0  0  0
 34 55  1  0  0  0  0
 56 57  4  0  0  0  0
 57 58  4  0  0  0  0
 58 59  2  0  0  0  0
 59 60  4  0  0  0  0
 57 61  4  0  0  0  0
 60 61  4  0  0  0  0
 60 62  4  0  0  0  0
 62 63  1  0  0  0  0
 63 64  4  0  0  0  0
 64 65  4  0  0  0  0
 65 66  4  0  0  0  0
 66 67  4  0  0  0  0
 63 68  4  0  0  0  0
 67 68  4  0  0  0  0
 62 69  4  0  0  0  0
 69 70  1  0  0  0  0
 70 71  2  0  0  0  0
 69 72  4  0  0  0  0
 71 73  1  0  0  0  0
 72 73  4  0  0  0  0
 73 74  4  0  0  0  0
 74 75  4  0  0  0  0
 75 76  4  0  0  0  0
 76 77  2  0  0  0  0
 77 78  4  0  0  0  0
 75 79  4  0  0  0  0
 78 79  4  0  0  0  0
 78 80  4  0  0  0  0
 80 81  1  0  0  0  0
 81 82  4  0  0  0  0
 82 83  4  0  0  0  0
 83 84  4  0  0  0  0
 84 85  4  0  0  0  0
 81 86  4  0  0  0  0
 85 86  4  0  0  0  0
 80 87  4  0  0  0  0
 87 88  1  0  0  0  0
 88 89  2  0  0  0  0
 56 90  4  0  0  0  0
 89 90  1  0  0  0  0
 87 91  4  0  0  0  0
 90 91  4  0  0  0  0
 56 92  1  0  0  0  0
 58 93  1  0  0  0  0
 59 94  1  0  0  0  0
 61 95  1  0  0  0  0
 64 96  1  0  0  0  0
 65 97  1  0  0  0  0
 67 98  1  0  0  0  0
 68 99  1  0  0  0  0
 70100  1  0  0  0  0
 71101  1  0  0  0  0
 76102  1  0  0  0  0
 77103  1  0  0  0  0
 79104  1  0  0  0  0
 82105  1  0  0  0  0
 83106  1  0  0  0  0
 85107  1  0  0  0  0
 86108  1  0  0  0  0
 88109  1  0  0  0  0
 89110  1  0  0  0  0
 19112  4  0  0  0  0
111112  3  0  0  0  0
111113  4  0  0  0  0
113114  3  0  0  0  0
115116  3  0  0  0  0
115117  4  0  0  0  0
117118  3  0  0  0  0
119120  3  0  0  0  0
119121  4  0  0  0  0
121122  3  0  0  0  0
123124  3  0  0  0  0
123125  4  0  0  0  0
 74126  4  0  0  0  0
125126  3  0  0  0  0
114127  4  0  0  0  0
127128  4  0  0  0  0
128129  4  0  0  0  0
129130  2  0  0  0  0
130131  4  0  0  0  0
128132  4  0  0  0  0
131132  4  0  0  0  0
131133  4  0  0  0  0
133134  1  0  0  0  0
134135  4  0  0  0  0
135136  4  0  0  0  0
136137  4  0  0  0  0
137138  4  0  0  0  0
134139  4  0  0  0  0
138139  4  0  0  0  0
133140  4  0  0  0  0
140141  1  0  0  0  0
141142  2  0  0  0  0
140143  4  0  0  0  0
142144  1  0  0  0  0
143144  4  0  0  0  0
116145  4  0  0  0  0
144145  4  0  0  0  0
145146  4  0  0  0  0
146147  4  0  0  0  0
147148  2  0  0  0  0
148149  4  0  0  0  0
146150  4  0  0  0  0
149150  4  0  0  0  0
149151  4  0  0  0  0
151152  1  0  0  0  0
152153  4  0  0  0  0
153154  4  0  0  0  0
154155  4  0  0  0  0
155156  4  0  0  0  0
152157  4  0  0  0  0
156157  4  0  0  0  0
151158  4  0  0  0  0
158159  1  0  0  0  0
159160  2  0  0  0  0
127161  4  0  0  0  0
160161  1  0  0  0  0
158162  4  0  0  0  0
161162  4  0  0  0  0
129163  1  0  0  0  0
130164  1  0  0  0  0
132165  1  0  0  0  0
135166  1  0  0  0  0
136167  1  0  0  0  0
138168  1  0  0  0  0
139169  1  0  0  0  0
141170  1  0  0  0  0
142171  1  0  0  0  0
147172  1  0  0  0  0
148173  1  0  0  0  0
150174  1  0  0  0  0
153175  1  0  0  0  0
154176  1  0  0  0  0
156177  1  0  0  0  0
157178  1  0  0  0  0
159179  1  0  0  0  0
160180  1  0  0  0  0
118181  4  0  0  0  0
181182  4  0  0  0  0
182183  4  0  0  0  0
183184  2  0  0  0  0
184185  4  0  0  0  0
182186  4  0  0  0  0
185186  4  0  0  0  0
185187  4  0  0  0  0
187188  1  0  0  0  0
188189  4  0  0  0  0
189190  4  0  0  0  0
190191  4  0  0  0  0
191192  4  0  0  0  0
188193  4  0  0  0  0
192193  4  0  0  0  0
187194  4  0  0  0  0
194195  1  0  0  0  0
195196  2  0  0  0  0
194197  4  0  0  0  0
196198  1  0  0  0  0
197198  4  0  0  0  0
120199  4  0  0  0  0
198199  4  0  0  0  0
199200  4  0  0  0  0
200201  4  0  0  0  0
201202  2  0  0  0  0
202203  4  0  0  0  0
200204  4  0  0  0  0
203204  4  0  0  0  0
203205  4  0  0  0  0
205206  1  0  0  0  0
206207  4  0  0  0  0
207208  4  0  0  0  0
208209  4  0  0  0  0
209210  4  0  0  0  0
206211  4  0  0  0  0
210211  4  0  0  0  0
205212  4  0  0  0  0
212213  1  0  0  0  0
213214  2  0  0  0  0
181215  4  0  0  0  0
214215  1  0  0  0  0
212216  4  0  0  0  0
215216  4  0  0  0  0
183217  1  0  0  0  0
184218  1  0  0  0  0
186219  1  0  0  0  0
189220  1  0  0  0  0
190221  1  0  0  0  0
192222  1  0  0  0  0
193223  1  0  0  0  0
195224  1  0  0  0  0
196225  1  0  0  0  0
201226  1  0  0  0  0
202227  1  0  0  0  0
204228  1  0  0  0  0
207229  1  0  0  0  0
208230  1  0  0  0  0
210231  1  0  0  0  0
211232  1  0  0  0  0
213233  1  0  0  0  0
214234  1  0  0  0  0
122235  4  0  0  0  0
235236  4  0  0  0  0
236237  4  0  0  0  0
237238  2  0  0  0  0
238239  4  0  0  0  0
236240  4  0  0  0  0
239240  4  0  0  0  0
239241  4  0  0  0  0
241242  1  0  0  0  0
242243  4  0  0  0  0
243244  4  0  0  0  0
244245  4  0  0  0  0
245246  4  0  0  0  0
242247  4  0  0  0  0
246247  4  0  0  0  0
241248  4  0  0  0  0
248249  1  0  0  0  0
249250  2  0  0  0  0
248251  4  0  0  0  0
250252  1  0  0  0  0
251252  4  0  0  0  0
124253  4  0  0  0  0
252253  4  0  0  0  0
253254  4  0  0  0  0
254255  4  0  0  0  0
255256  2  0  0  0  0
256257  4  0  0  0  0
254258  4  0  0  0  0
257258  4  0  0  0  0
257259  4  0  0  0  0
259260  1  0  0  0  0
260261  4  0  0  0  0
261262  4  0  0  0  0
262263  4  0  0  0  0
263264  4  0  0  0  0
260265  4  0  0  0  0
264265  4  0  0  0  0
259266  4  0  0  0  0
266267  1  0  0  0  0
267268  2  0  0  0  0
235269  4  0  0  0  0
268269  1  0  0  0  0
266270  4  0  0  0  0
269270  4  0  0  0  0
237271  1  0  0  0  0
238272  1  0  0  0  0
240273  1  0  0  0  0
243274  1  0  0  0  0
244275  1  0  0  0  0
246276  1  0  0  0  0
247277  1  0  0  0  0
249278  1  0  0  0  0
250279  1  0  0  0  0
255280  1  0  0  0  0
256281  1  0  0  0  0
258282  1  0  0  0  0
261283  1  0  0  0  0
262284  1  0  0  0  0
264285  1  0  0  0  0
265286  1  0  0  0  0
267287  1  0  0  0  0
268288  1  0  0  0  0
M  END
