 xtb: 6.5.1 (b24c23e)
          07302209163D

280319  0     0  0            999 V2000
   50.1832    0.0263   -0.0293 Zn  0  0  0  0  0  0  0  0  0  0  0  0
   46.7746    0.0993   -0.0792 C   0  0  0  0  0  0  0  0  0  0  0  0
   47.4008    1.0164    0.7565 C   0  0  0  0  0  0  0  0  0  0  0  0
   46.7233    1.9477    1.6137 C   0  0  0  0  0  0  0  0  0  0  0  0
   47.6800    2.6597    2.2611 C   0  0  0  0  0  0  0  0  0  0  0  0
   48.9547    2.1804    1.7973 C   0  0  0  0  0  0  0  0  0  0  0  0
   48.7499    1.1779    0.8948 N   0  0  0  0  0  0  0  0  0  0  0  0
   50.2042    2.6528    2.2208 C   0  0  0  0  0  0  0  0  0  0  0  0
   50.2142    3.7771    3.1874 C   0  0  0  0  0  0  0  0  0  0  0  0
   49.6320    5.0056    2.8630 C   0  0  0  0  0  0  0  0  0  0  0  0
   49.6506    6.0563    3.7610 C   0  0  0  0  0  0  0  0  0  0  0  0
   50.2486    5.9072    5.0182 C   0  0  0  0  0  0  0  0  0  0  0  0
   50.1941    6.9718    5.9074 N   0  0  0  0  0  0  0  0  0  0  0  0
   51.1878    7.0710    6.9684 C   0  0  0  0  0  0  0  0  0  0  0  0
   50.8172    4.6755    5.3545 C   0  0  0  0  0  0  0  0  0  0  0  0
   50.8042    3.6323    4.4442 C   0  0  0  0  0  0  0  0  0  0  0  0
   51.4441    2.1517    1.8076 C   0  0  0  0  0  0  0  0  0  0  0  0
   52.7226    2.6793    2.1962 C   0  0  0  0  0  0  0  0  0  0  0  0
   53.6709    1.9260    1.5822 C   0  0  0  0  0  0  0  0  0  0  0  0
   51.6407    1.0995    0.9525 N   0  0  0  0  0  0  0  0  0  0  0  0
   52.9828    0.9383    0.8050 C   0  0  0  0  0  0  0  0  0  0  0  0
   53.6166   -0.0441    0.0165 C   0  0  0  0  0  0  0  0  0  0  0  0
   52.9647   -1.0025   -0.7865 C   0  0  0  0  0  0  0  0  0  0  0  0
   53.6325   -2.0187   -1.5444 C   0  0  0  0  0  0  0  0  0  0  0  0
   52.6709   -2.7337   -2.1833 C   0  0  0  0  0  0  0  0  0  0  0  0
   51.4052   -2.1534   -1.8300 C   0  0  0  0  0  0  0  0  0  0  0  0
   51.6216   -1.1092   -0.9699 N   0  0  0  0  0  0  0  0  0  0  0  0
   50.1573   -2.6020   -2.2779 C   0  0  0  0  0  0  0  0  0  0  0  0
   50.1457   -3.7289   -3.2417 C   0  0  0  0  0  0  0  0  0  0  0  0
   50.7730   -3.6144   -4.4833 C   0  0  0  0  0  0  0  0  0  0  0  0
   50.7637   -4.6607   -5.3904 C   0  0  0  0  0  0  0  0  0  0  0  0
   50.1341   -5.8654   -5.0654 C   0  0  0  0  0  0  0  0  0  0  0  0
   50.0550   -6.9299   -5.9527 N   0  0  0  0  0  0  0  0  0  0  0  0
   51.0660   -7.0746   -6.9918 C   0  0  0  0  0  0  0  0  0  0  0  0
   49.4992   -5.9840   -3.8231 C   0  0  0  0  0  0  0  0  0  0  0  0
   49.5032   -4.9301   -2.9289 C   0  0  0  0  0  0  0  0  0  0  0  0
   48.9175   -2.0755   -1.8912 C   0  0  0  0  0  0  0  0  0  0  0  0
   47.6375   -2.5005   -2.3921 C   0  0  0  0  0  0  0  0  0  0  0  0
   46.6937   -1.7471   -1.7732 C   0  0  0  0  0  0  0  0  0  0  0  0
   47.3852   -0.8445   -0.8967 C   0  0  0  0  0  0  0  0  0  0  0  0
   48.7295   -1.0638   -0.9954 N   0  0  0  0  0  0  0  0  0  0  0  0
   45.6892    0.1225   -0.0950 H   0  0  0  0  0  0  0  0  0  0  0  0
   45.6518    2.0309    1.7083 H   0  0  0  0  0  0  0  0  0  0  0  0
   47.5385    3.4332    2.9990 H   0  0  0  0  0  0  0  0  0  0  0  0
   49.1819    5.1420    1.8857 H   0  0  0  0  0  0  0  0  0  0  0  0
   49.2023    7.0073    3.4930 H   0  0  0  0  0  0  0  0  0  0  0  0
   50.0408    7.8587    5.4422 H   0  0  0  0  0  0  0  0  0  0  0  0
   52.2077    6.9969    6.5738 H   0  0  0  0  0  0  0  0  0  0  0  0
   51.0294    6.2813    7.7040 H   0  0  0  0  0  0  0  0  0  0  0  0
   51.0605    8.0356    7.4599 H   0  0  0  0  0  0  0  0  0  0  0  0
   51.2687    4.5232    6.3272 H   0  0  0  0  0  0  0  0  0  0  0  0
   51.2410    2.6786    4.7204 H   0  0  0  0  0  0  0  0  0  0  0  0
   52.8748    3.5278    2.8436 H   0  0  0  0  0  0  0  0  0  0  0  0
   54.7429    2.0299    1.6394 H   0  0  0  0  0  0  0  0  0  0  0  0
   54.7005   -2.1667   -1.5722 H   0  0  0  0  0  0  0  0  0  0  0  0
   52.8054   -3.5888   -2.8261 H   0  0  0  0  0  0  0  0  0  0  0  0
   51.2574   -2.6815   -4.7512 H   0  0  0  0  0  0  0  0  0  0  0  0
   51.2455   -4.5316   -6.3518 H   0  0  0  0  0  0  0  0  0  0  0  0
   49.8536   -7.8080   -5.4892 H   0  0  0  0  0  0  0  0  0  0  0  0
   50.9559   -6.2824   -7.7335 H   0  0  0  0  0  0  0  0  0  0  0  0
   50.9094   -8.0353   -7.4824 H   0  0  0  0  0  0  0  0  0  0  0  0
   52.0795   -7.0408   -6.5759 H   0  0  0  0  0  0  0  0  0  0  0  0
   49.0037   -6.9139   -3.5640 H   0  0  0  0  0  0  0  0  0  0  0  0
   49.0229   -5.0431   -1.9630 H   0  0  0  0  0  0  0  0  0  0  0  0
   47.4846   -3.2682   -3.1337 H   0  0  0  0  0  0  0  0  0  0  0  0
   45.6228   -1.7846   -1.8991 H   0  0  0  0  0  0  0  0  0  0  0  0
   98.3245    0.0185   -0.0218 Zn  0  0  0  0  0  0  0  0  0  0  0  0
  101.7326    0.0633   -0.1149 C   0  0  0  0  0  0  0  0  0  0  0  0
  101.1076   -0.9553   -0.8244 C   0  0  0  0  0  0  0  0  0  0  0  0
  101.7864   -1.9929   -1.5481 C   0  0  0  0  0  0  0  0  0  0  0  0
  100.8308   -2.7842   -2.0974 C   0  0  0  0  0  0  0  0  0  0  0  0
   99.5553   -2.2318   -1.7262 C   0  0  0  0  0  0  0  0  0  0  0  0
   99.7588   -1.1308   -0.9465 N   0  0  0  0  0  0  0  0  0  0  0  0
   98.3065   -2.7537   -2.0896 C   0  0  0  0  0  0  0  0  0  0  0  0
   98.2989   -3.9431   -2.9750 C   0  0  0  0  0  0  0  0  0  0  0  0
   98.8746   -3.8913   -4.2475 C   0  0  0  0  0  0  0  0  0  0  0  0
   98.8601   -4.9975   -5.0761 C   0  0  0  0  0  0  0  0  0  0  0  0
   98.2731   -6.1960   -4.6524 C   0  0  0  0  0  0  0  0  0  0  0  0
   98.3325   -7.2962   -5.4967 N   0  0  0  0  0  0  0  0  0  0  0  0
   97.3513   -8.3638   -5.3541 C   0  0  0  0  0  0  0  0  0  0  0  0
   97.7109   -6.2586   -3.3744 C   0  0  0  0  0  0  0  0  0  0  0  0
   97.7193   -5.1418   -2.5559 C   0  0  0  0  0  0  0  0  0  0  0  0
   97.0659   -2.2453   -1.6874 C   0  0  0  0  0  0  0  0  0  0  0  0
   95.7880   -2.7451   -2.1124 C   0  0  0  0  0  0  0  0  0  0  0  0
   94.8387   -1.9823   -1.5117 C   0  0  0  0  0  0  0  0  0  0  0  0
   96.8681   -1.1794   -0.8497 N   0  0  0  0  0  0  0  0  0  0  0  0
   95.5258   -1.0036   -0.7222 C   0  0  0  0  0  0  0  0  0  0  0  0
   94.8911   -0.0188    0.0625 C   0  0  0  0  0  0  0  0  0  0  0  0
   95.5422    0.9761    0.8207 C   0  0  0  0  0  0  0  0  0  0  0  0
   94.8736    1.9362    1.6479 C   0  0  0  0  0  0  0  0  0  0  0  0
   95.8343    2.7174    2.2051 C   0  0  0  0  0  0  0  0  0  0  0  0
   97.1003    2.2490    1.7137 C   0  0  0  0  0  0  0  0  0  0  0  0
   96.8850    1.1811    0.8830 N   0  0  0  0  0  0  0  0  0  0  0  0
   98.3474    2.7881    2.0505 C   0  0  0  0  0  0  0  0  0  0  0  0
   98.3573    3.9757    2.9383 C   0  0  0  0  0  0  0  0  0  0  0  0
   97.7213    5.1584    2.5568 C   0  0  0  0  0  0  0  0  0  0  0  0
   97.7279    6.2731    3.3782 C   0  0  0  0  0  0  0  0  0  0  0  0
   98.3638    6.2244    4.6218 C   0  0  0  0  0  0  0  0  0  0  0  0
   98.4400    7.3243    5.4651 N   0  0  0  0  0  0  0  0  0  0  0  0
   97.4208    8.3623    5.3841 C   0  0  0  0  0  0  0  0  0  0  0  0
   99.0079    5.0424    5.0072 C   0  0  0  0  0  0  0  0  0  0  0  0
   99.0061    3.9383    4.1756 C   0  0  0  0  0  0  0  0  0  0  0  0
   99.5876    2.2998    1.6178 C   0  0  0  0  0  0  0  0  0  0  0  0
  100.8666    2.8863    1.9181 C   0  0  0  0  0  0  0  0  0  0  0  0
  101.8110    2.1209    1.3152 C   0  0  0  0  0  0  0  0  0  0  0  0
  101.1211    1.0653    0.6293 C   0  0  0  0  0  0  0  0  0  0  0  0
   99.7769    1.2047    0.8264 N   0  0  0  0  0  0  0  0  0  0  0  0
  102.8179    0.0778   -0.1451 H   0  0  0  0  0  0  0  0  0  0  0  0
  102.8581   -2.0990   -1.6129 H   0  0  0  0  0  0  0  0  0  0  0  0
  100.9735   -3.6729   -2.6912 H   0  0  0  0  0  0  0  0  0  0  0  0
   99.3166   -2.9643   -4.5965 H   0  0  0  0  0  0  0  0  0  0  0  0
   99.3033   -4.9411   -6.0648 H   0  0  0  0  0  0  0  0  0  0  0  0
   98.4778   -7.0358   -6.4649 H   0  0  0  0  0  0  0  0  0  0  0  0
   96.3270   -7.9735   -5.3598 H   0  0  0  0  0  0  0  0  0  0  0  0
   97.5228   -8.9076   -4.4243 H   0  0  0  0  0  0  0  0  0  0  0  0
   97.4792   -9.0525   -6.1892 H   0  0  0  0  0  0  0  0  0  0  0  0
   97.2680   -7.1777   -3.0106 H   0  0  0  0  0  0  0  0  0  0  0  0
   97.2876   -5.2057   -1.5628 H   0  0  0  0  0  0  0  0  0  0  0  0
   95.6367   -3.5653   -2.7957 H   0  0  0  0  0  0  0  0  0  0  0  0
   93.7668   -2.0642   -1.5976 H   0  0  0  0  0  0  0  0  0  0  0  0
   93.8057    1.9934    1.7878 H   0  0  0  0  0  0  0  0  0  0  0  0
   95.6989    3.5306    2.9000 H   0  0  0  0  0  0  0  0  0  0  0  0
   97.2322    5.2119    1.5900 H   0  0  0  0  0  0  0  0  0  0  0  0
   97.2390    7.1797    3.0434 H   0  0  0  0  0  0  0  0  0  0  0  0
   98.6490    7.0664    6.4223 H   0  0  0  0  0  0  0  0  0  0  0  0
   97.5210    8.9125    4.4476 H   0  0  0  0  0  0  0  0  0  0  0  0
   97.5773    9.0532    6.2126 H   0  0  0  0  0  0  0  0  0  0  0  0
   96.4107    7.9416    5.4488 H   0  0  0  0  0  0  0  0  0  0  0  0
   99.5086    4.9970    5.9687 H   0  0  0  0  0  0  0  0  0  0  0  0
   99.4933    3.0238    4.4959 H   0  0  0  0  0  0  0  0  0  0  0  0
  101.0183    3.7788    2.5039 H   0  0  0  0  0  0  0  0  0  0  0  0
  102.8815    2.2561    1.3203 H   0  0  0  0  0  0  0  0  0  0  0  0
   58.8180   -0.0816    0.0485 C   0  0  0  0  0  0  0  0  0  0  0  0
   57.5891   -0.0807    0.0445 C   0  0  0  0  0  0  0  0  0  0  0  0
   56.2453   -0.0759    0.0391 C   0  0  0  0  0  0  0  0  0  0  0  0
   55.0209   -0.0661    0.0299 C   0  0  0  0  0  0  0  0  0  0  0  0
   60.1617   -0.0752    0.0465 C   0  0  0  0  0  0  0  0  0  0  0  0
   61.3862   -0.0638    0.0375 C   0  0  0  0  0  0  0  0  0  0  0  0
   74.8683    0.1053   -0.1005 C   0  0  0  0  0  0  0  0  0  0  0  0
   73.6392    0.1064   -0.1099 C   0  0  0  0  0  0  0  0  0  0  0  0
   72.2957    0.1029   -0.1145 C   0  0  0  0  0  0  0  0  0  0  0  0
   71.0710    0.0935   -0.1100 C   0  0  0  0  0  0  0  0  0  0  0  0
   76.2118    0.0995   -0.0873 C   0  0  0  0  0  0  0  0  0  0  0  0
   77.4364    0.0912   -0.0702 C   0  0  0  0  0  0  0  0  0  0  0  0
   90.9185   -0.0277    0.1107 C   0  0  0  0  0  0  0  0  0  0  0  0
   89.6896   -0.0236    0.1126 C   0  0  0  0  0  0  0  0  0  0  0  0
   88.3459   -0.0164    0.1079 C   0  0  0  0  0  0  0  0  0  0  0  0
   87.1214   -0.0074    0.0974 C   0  0  0  0  0  0  0  0  0  0  0  0
   92.2624   -0.0288    0.1015 C   0  0  0  0  0  0  0  0  0  0  0  0
   93.4867   -0.0267    0.0874 C   0  0  0  0  0  0  0  0  0  0  0  0
   66.2288    0.0173   -0.0396 Zn  0  0  0  0  0  0  0  0  0  0  0  0
   62.7902   -0.0511    0.0282 C   0  0  0  0  0  0  0  0  0  0  0  0
   63.4381   -1.0358   -0.7459 C   0  0  0  0  0  0  0  0  0  0  0  0
   62.7635   -2.0219   -1.5357 C   0  0  0  0  0  0  0  0  0  0  0  0
   63.7228   -2.7651   -2.1459 C   0  0  0  0  0  0  0  0  0  0  0  0
   64.9933   -2.2453   -1.7249 C   0  0  0  0  0  0  0  0  0  0  0  0
   64.7826   -1.1885   -0.8797 N   0  0  0  0  0  0  0  0  0  0  0  0
   66.2411   -2.7265   -2.1396 C   0  0  0  0  0  0  0  0  0  0  0  0
   66.2447   -3.9011   -3.0451 C   0  0  0  0  0  0  0  0  0  0  0  0
   65.6868   -5.1173   -2.6407 C   0  0  0  0  0  0  0  0  0  0  0  0
   65.6854   -6.2105   -3.4863 C   0  0  0  0  0  0  0  0  0  0  0  0
   66.2330   -6.1165   -4.7716 C   0  0  0  0  0  0  0  0  0  0  0  0
   66.2486   -7.2532   -5.5681 N   0  0  0  0  0  0  0  0  0  0  0  0
   66.3372   -7.1145   -7.0157 C   0  0  0  0  0  0  0  0  0  0  0  0
   66.8001   -4.9054   -5.1781 C   0  0  0  0  0  0  0  0  0  0  0  0
   66.8035   -3.8172   -4.3217 C   0  0  0  0  0  0  0  0  0  0  0  0
   67.4838   -2.1944   -1.7761 C   0  0  0  0  0  0  0  0  0  0  0  0
   68.7592   -2.7289   -2.1622 C   0  0  0  0  0  0  0  0  0  0  0  0
   69.7112   -1.9416   -1.5980 C   0  0  0  0  0  0  0  0  0  0  0  0
   67.6845   -1.1021   -0.9740 N   0  0  0  0  0  0  0  0  0  0  0  0
   69.0275   -0.9257   -0.8547 C   0  0  0  0  0  0  0  0  0  0  0  0
   69.6671    0.0826   -0.1041 C   0  0  0  0  0  0  0  0  0  0  0  0
   69.0189    1.0702    0.6665 C   0  0  0  0  0  0  0  0  0  0  0  0
   69.6931    2.0589    1.4534 C   0  0  0  0  0  0  0  0  0  0  0  0
   68.7336    2.8053    2.0595 C   0  0  0  0  0  0  0  0  0  0  0  0
   67.4633    2.2846    1.6395 C   0  0  0  0  0  0  0  0  0  0  0  0
   67.6743    1.2244    0.7982 N   0  0  0  0  0  0  0  0  0  0  0  0
   66.2155    2.7668    2.0529 C   0  0  0  0  0  0  0  0  0  0  0  0
   66.2089    3.9475    2.9501 C   0  0  0  0  0  0  0  0  0  0  0  0
   65.6408    3.8744    4.2231 C   0  0  0  0  0  0  0  0  0  0  0  0
   65.6313    4.9714    5.0681 C   0  0  0  0  0  0  0  0  0  0  0  0
   66.1948    6.1814    4.6532 C   0  0  0  0  0  0  0  0  0  0  0  0
   66.1619    7.3281    5.4337 N   0  0  0  0  0  0  0  0  0  0  0  0
   66.0385    7.2128    6.8805 C   0  0  0  0  0  0  0  0  0  0  0  0
   66.7559    6.2632    3.3729 C   0  0  0  0  0  0  0  0  0  0  0  0
   66.7669    5.1611    2.5389 C   0  0  0  0  0  0  0  0  0  0  0  0
   64.9728    2.2313    1.6932 C   0  0  0  0  0  0  0  0  0  0  0  0
   63.6971    2.7659    2.0784 C   0  0  0  0  0  0  0  0  0  0  0  0
   62.7455    1.9750    1.5186 C   0  0  0  0  0  0  0  0  0  0  0  0
   63.4296    0.9578    0.7780 C   0  0  0  0  0  0  0  0  0  0  0  0
   64.7726    1.1359    0.8955 N   0  0  0  0  0  0  0  0  0  0  0  0
   61.6928   -2.1221   -1.6163 H   0  0  0  0  0  0  0  0  0  0  0  0
   63.5817   -3.5835   -2.8335 H   0  0  0  0  0  0  0  0  0  0  0  0
   65.2675   -5.2077   -1.6444 H   0  0  0  0  0  0  0  0  0  0  0  0
   65.2574   -7.1514   -3.1561 H   0  0  0  0  0  0  0  0  0  0  0  0
   65.5504   -7.9323   -5.2898 H   0  0  0  0  0  0  0  0  0  0  0  0
   65.5772   -6.4261   -7.4019 H   0  0  0  0  0  0  0  0  0  0  0  0
   67.3262   -6.7513   -7.2967 H   0  0  0  0  0  0  0  0  0  0  0  0
   66.1891   -8.0996   -7.4582 H   0  0  0  0  0  0  0  0  0  0  0  0
   67.2403   -4.8046   -6.1626 H   0  0  0  0  0  0  0  0  0  0  0  0
   67.2289   -2.8771   -4.6564 H   0  0  0  0  0  0  0  0  0  0  0  0
   68.9081   -3.6047   -2.7731 H   0  0  0  0  0  0  0  0  0  0  0  0
   70.7830   -2.0393   -1.6682 H   0  0  0  0  0  0  0  0  0  0  0  0
   70.7637    2.1590    1.5353 H   0  0  0  0  0  0  0  0  0  0  0  0
   68.8744    3.6263    2.7440 H   0  0  0  0  0  0  0  0  0  0  0  0
   65.2169    2.9359    4.5639 H   0  0  0  0  0  0  0  0  0  0  0  0
   65.1832    4.8783    6.0498 H   0  0  0  0  0  0  0  0  0  0  0  0
   66.8616    8.0073    5.1593 H   0  0  0  0  0  0  0  0  0  0  0  0
   66.7966    6.5403    7.2983 H   0  0  0  0  0  0  0  0  0  0  0  0
   66.1636    8.2073    7.3091 H   0  0  0  0  0  0  0  0  0  0  0  0
   65.0466    6.8426    7.1424 H   0  0  0  0  0  0  0  0  0  0  0  0
   67.1823    7.2025    3.0367 H   0  0  0  0  0  0  0  0  0  0  0  0
   67.1950    5.2432    1.5457 H   0  0  0  0  0  0  0  0  0  0  0  0
   63.5475    3.6442    2.6853 H   0  0  0  0  0  0  0  0  0  0  0  0
   61.6737    2.0719    1.5896 H   0  0  0  0  0  0  0  0  0  0  0  0
   82.2784    0.0422    0.0135 Zn  0  0  0  0  0  0  0  0  0  0  0  0
   78.8400    0.0783   -0.0484 C   0  0  0  0  0  0  0  0  0  0  0  0
   79.4867   -0.9419   -0.7766 C   0  0  0  0  0  0  0  0  0  0  0  0
   78.8115   -1.9785   -1.4986 C   0  0  0  0  0  0  0  0  0  0  0  0
   79.7700   -2.7546   -2.0675 C   0  0  0  0  0  0  0  0  0  0  0  0
   81.0405   -2.1920   -1.7059 C   0  0  0  0  0  0  0  0  0  0  0  0
   80.8309   -1.0963   -0.9109 N   0  0  0  0  0  0  0  0  0  0  0  0
   82.2876   -2.6984   -2.0904 C   0  0  0  0  0  0  0  0  0  0  0  0
   82.2931   -3.8707   -2.9987 C   0  0  0  0  0  0  0  0  0  0  0  0
   82.8864   -5.0747   -2.6090 C   0  0  0  0  0  0  0  0  0  0  0  0
   82.8956   -6.1658   -3.4573 C   0  0  0  0  0  0  0  0  0  0  0  0
   82.3216   -6.0812   -4.7316 C   0  0  0  0  0  0  0  0  0  0  0  0
   82.3163   -7.2163   -5.5303 N   0  0  0  0  0  0  0  0  0  0  0  0
   82.2019   -7.0773   -6.9762 C   0  0  0  0  0  0  0  0  0  0  0  0
   81.7197   -4.8822   -5.1236 C   0  0  0  0  0  0  0  0  0  0  0  0
   81.7076   -3.7969   -4.2638 C   0  0  0  0  0  0  0  0  0  0  0  0
   83.5318   -2.1926   -1.6943 C   0  0  0  0  0  0  0  0  0  0  0  0
   84.8058   -2.6822   -2.1395 C   0  0  0  0  0  0  0  0  0  0  0  0
   85.7592   -1.9295   -1.5317 C   0  0  0  0  0  0  0  0  0  0  0  0
   83.7340   -1.1419   -0.8392 N   0  0  0  0  0  0  0  0  0  0  0  0
   85.0772   -0.9670   -0.7195 C   0  0  0  0  0  0  0  0  0  0  0  0
   85.7175    0.0044    0.0776 C   0  0  0  0  0  0  0  0  0  0  0  0
   85.0698    0.9895    0.8514 C   0  0  0  0  0  0  0  0  0  0  0  0
   85.7419    1.9393    1.6863 C   0  0  0  0  0  0  0  0  0  0  0  0
   84.7833    2.7160    2.2547 C   0  0  0  0  0  0  0  0  0  0  0  0
   83.5164    2.2536    1.7623 C   0  0  0  0  0  0  0  0  0  0  0  0
   83.7271    1.1945    0.9200 N   0  0  0  0  0  0  0  0  0  0  0  0
   82.2700    2.7909    2.1071 C   0  0  0  0  0  0  0  0  0  0  0  0
   82.2677    3.9730    3.0024 C   0  0  0  0  0  0  0  0  0  0  0  0
   81.6271    3.9312    4.2419 C   0  0  0  0  0  0  0  0  0  0  0  0
   81.6266    5.0289    5.0860 C   0  0  0  0  0  0  0  0  0  0  0  0
   82.2722    6.2082    4.7041 C   0  0  0  0  0  0  0  0  0  0  0  0
   82.2566    7.3559    5.4842 N   0  0  0  0  0  0  0  0  0  0  0  0
   82.0668    7.2448    6.9244 C   0  0  0  0  0  0  0  0  0  0  0  0
   82.9043    6.2600    3.4557 C   0  0  0  0  0  0  0  0  0  0  0  0
   82.9063    5.1570    2.6229 C   0  0  0  0  0  0  0  0  0  0  0  0
   81.0271    2.3094    1.6792 C   0  0  0  0  0  0  0  0  0  0  0  0
   79.7565    2.9009    1.9910 C   0  0  0  0  0  0  0  0  0  0  0  0
   78.8029    2.1411    1.3925 C   0  0  0  0  0  0  0  0  0  0  0  0
   79.4817    1.0868    0.7003 C   0  0  0  0  0  0  0  0  0  0  0  0
   80.8232    1.2138    0.8825 N   0  0  0  0  0  0  0  0  0  0  0  0
   77.7409   -2.0968   -1.5524 H   0  0  0  0  0  0  0  0  0  0  0  0
   79.6295   -3.6396   -2.6670 H   0  0  0  0  0  0  0  0  0  0  0  0
   83.3277   -5.1578   -1.6217 H   0  0  0  0  0  0  0  0  0  0  0  0
   83.3502   -7.0978   -3.1380 H   0  0  0  0  0  0  0  0  0  0  0  0
   83.0326   -7.8816   -5.2647 H   0  0  0  0  0  0  0  0  0  0  0  0
   81.2031   -6.7279   -7.2405 H   0  0  0  0  0  0  0  0  0  0  0  0
   82.9460   -6.3777   -7.3742 H   0  0  0  0  0  0  0  0  0  0  0  0
   82.3566   -8.0599   -7.4220 H   0  0  0  0  0  0  0  0  0  0  0  0
   81.2587   -4.7889   -6.0993 H   0  0  0  0  0  0  0  0  0  0  0  0
   81.2537   -2.8661   -4.5870 H   0  0  0  0  0  0  0  0  0  0  0  0
   84.9532   -3.4888   -2.8395 H   0  0  0  0  0  0  0  0  0  0  0  0
   86.8305   -2.0084   -1.6276 H   0  0  0  0  0  0  0  0  0  0  0  0
   86.8102    1.9942    1.8233 H   0  0  0  0  0  0  0  0  0  0  0  0
   84.9218    3.5218    2.9574 H   0  0  0  0  0  0  0  0  0  0  0  0
   81.1385    3.0159    4.5583 H   0  0  0  0  0  0  0  0  0  0  0  0
   81.1214    4.9606    6.0417 H   0  0  0  0  0  0  0  0  0  0  0  0
   83.0001    8.0004    5.2435 H   0  0  0  0  0  0  0  0  0  0  0  0
   82.7750    6.5376    7.3714 H   0  0  0  0  0  0  0  0  0  0  0  0
   82.2194    8.2320    7.3610 H   0  0  0  0  0  0  0  0  0  0  0  0
   81.0487    6.9204    7.1433 H   0  0  0  0  0  0  0  0  0  0  0  0
   83.3946    7.1763    3.1438 H   0  0  0  0  0  0  0  0  0  0  0  0
   83.3918    5.2156    1.6548 H   0  0  0  0  0  0  0  0  0  0  0  0
   79.6126    3.7926    2.5796 H   0  0  0  0  0  0  0  0  0  0  0  0
   77.7339    2.2823    1.4071 H   0  0  0  0  0  0  0  0  0  0  0  0
  2  3  4  0  0  0  0
  3  4  4  0  0  0  0
  4  5  2  0  0  0  0
  5  6  4  0  0  0  0
  1  7  1  0  0  0  0
  3  7  4  0  0  0  0
  6  7  4  0  0  0  0
  6  8  4  0  0  0  0
  8  9  1  0  0  0  0
  9 10  4  0  0  0  0
 10 11  4  0  0  0  0
 11 12  4  0  0  0  0
 12 13  1  0  0  0  0
 13 14  1  0  0  0  0
 12 15  4  0  0  0  0
  9 16  4  0  0  0  0
 15 16  4  0  0  0  0
  8 17  4  0  0  0  0
 17 18  4  0  0  0  0
 18 19  2  0  0  0  0
  1 20  1  0  0  0  0
 17 20  4  0  0  0  0
 19 21  4  0  0  0  0
 20 21  4  0  0  0  0
 21 22  4  0  0  0  0
 22 23  4  0  0  0  0
 23 24  4  0  0  0  0
 24 25  2  0  0  0  0
 25 26  4  0  0  0  0
  1 27  1  0  0  0  0
 23 27  4  0  0  0  0
 26 27  4  0  0  0  0
 26 28  4  0  0  0  0
 28 29  1  0  0  0  0
 29 30  4  0  0  0  0
 30 31  4  0  0  0  0
 31 32  4  0  0  0  0
 32 33  1  0  0  0  0
 33 34  1  0  0  0  0
 32 35  4  0  0  0  0
 29 36  4  0  0  0  0
 35 36  4  0  0  0  0
 28 37  4  0  0  0  0
 37 38  4  0  0  0  0
 38 39  2  0  0  0  0
  2 40  4  0  0  0  0
 39 40  4  0  0  0  0
  1 41  1  0  0  0  0
 37 41  4  0  0  0  0
 40 41  4  0  0  0  0
  2 42  1  0  0  0  0
  4 43  1  0  0  0  0
  5 44  1  0  0  0  0
 10 45  1  0  0  0  0
 11 46  1  0  0  0  0
 13 47  1  0  0  0  0
 14 48  1  0  0  0  0
 14 49  1  0  0  0  0
 14 50  1  0  0  0  0
 15 51  1  0  0  0  0
 16 52  1  0  0  0  0
 18 53  1  0  0  0  0
 19 54  1  0  0  0  0
 24 55  1  0  0  0  0
 25 56  1  0  0  0  0
 30 57  1  0  0  0  0
 31 58  1  0  0  0  0
 33 59  1  0  0  0  0
 34 60  1  0  0  0  0
 34 61  1  0  0  0  0
 34 62  1  0  0  0  0
 35 63  1  0  0  0  0
 36 64  1  0  0  0  0
 38 65  1  0  0  0  0
 39 66  1  0  0  0  0
 68 69  4  0  0  0  0
 69 70  4  0  0  0  0
 70 71  2  0  0  0  0
 71 72  4  0  0  0  0
 67 73  1  0  0  0  0
 69 73  4  0  0  0  0
 72 73  4  0  0  0  0
 72 74  4  0  0  0  0
 74 75  1  0  0  0  0
 75 76  4  0  0  0  0
 76 77  4  0  0  0  0
 77 78  4  0  0  0  0
 78 79  1  0  0  0  0
 79 80  1  0  0  0  0
 78 81  4  0  0  0  0
 75 82  4  0  0  0  0
 81 82  4  0  0  0  0
 74 83  4  0  0  0  0
 83 84  4  0  0  0  0
 84 85  2  0  0  0  0
 67 86  1  0  0  0  0
 83 86  4  0  0  0  0
 85 87  4  0  0  0  0
 86 87  4  0  0  0  0
 87 88  4  0  0  0  0
 88 89  4  0  0  0  0
 89 90  4  0  0  0  0
 90 91  2  0  0  0  0
 91 92  4  0  0  0  0
 67 93  1  0  0  0  0
 89 93  4  0  0  0  0
 92 93  4  0  0  0  0
 92 94  4  0  0  0  0
 94 95  1  0  0  0  0
 95 96  4  0  0  0  0
 96 97  4  0  0  0  0
 97 98  4  0  0  0  0
 98 99  1  0  0  0  0
 99100  1  0  0  0  0
 98101  4  0  0  0  0
 95102  4  0  0  0  0
101102  4  0  0  0  0
 94103  4  0  0  0  0
103104  4  0  0  0  0
104105  2  0  0  0  0
 68106  4  0  0  0  0
105106  4  0  0  0  0
 67107  1  0  0  0  0
103107  4  0  0  0  0
106107  4  0  0  0  0
 68108  1  0  0  0  0
 70109  1  0  0  0  0
 71110  1  0  0  0  0
 76111  1  0  0  0  0
 77112  1  0  0  0  0
 79113  1  0  0  0  0
 80114  1  0  0  0  0
 80115  1  0  0  0  0
 80116  1  0  0  0  0
 81117  1  0  0  0  0
 82118  1  0  0  0  0
 84119  1  0  0  0  0
 85120  1  0  0  0  0
 90121  1  0  0  0  0
 91122  1  0  0  0  0
 96123  1  0  0  0  0
 97124  1  0  0  0  0
 99125  1  0  0  0  0
100126  1  0  0  0  0
100127  1  0  0  0  0
100128  1  0  0  0  0
101129  1  0  0  0  0
102130  1  0  0  0  0
104131  1  0  0  0  0
105132  1  0  0  0  0
133134  3  0  0  0  0
134135  4  0  0  0  0
 22136  4  0  0  0  0
135136  3  0  0  0  0
133137  4  0  0  0  0
137138  3  0  0  0  0
139140  3  0  0  0  0
140141  4  0  0  0  0
141142  3  0  0  0  0
139143  4  0  0  0  0
143144  3  0  0  0  0
145146  3  0  0  0  0
146147  4  0  0  0  0
147148  3  0  0  0  0
145149  4  0  0  0  0
 88150  4  0  0  0  0
149150  3  0  0  0  0
138152  4  0  0  0  0
152153  4  0  0  0  0
153154  4  0  0  0  0
154155  2  0  0  0  0
155156  4  0  0  0  0
151157  1  0  0  0  0
153157  4  0  0  0  0
156157  4  0  0  0  0
156158  4  0  0  0  0
158159  1  0  0  0  0
159160  4  0  0  0  0
160161  4  0  0  0  0
161162  4  0  0  0  0
162163  1  0  0  0  0
163164  1  0  0  0  0
162165  4  0  0  0  0
159166  4  0  0  0  0
165166  4  0  0  0  0
158167  4  0  0  0  0
167168  4  0  0  0  0
168169  2  0  0  0  0
151170  1  0  0  0  0
167170  4  0  0  0  0
169171  4  0  0  0  0
170171  4  0  0  0  0
142172  4  0  0  0  0
171172  4  0  0  0  0
172173  4  0  0  0  0
173174  4  0  0  0  0
174175  2  0  0  0  0
175176  4  0  0  0  0
151177  1  0  0  0  0
173177  4  0  0  0  0
176177  4  0  0  0  0
176178  4  0  0  0  0
178179  1  0  0  0  0
179180  4  0  0  0  0
180181  4  0  0  0  0
181182  4  0  0  0  0
182183  1  0  0  0  0
183184  1  0  0  0  0
182185  4  0  0  0  0
179186  4  0  0  0  0
185186  4  0  0  0  0
178187  4  0  0  0  0
187188  4  0  0  0  0
188189  2  0  0  0  0
152190  4  0  0  0  0
189190  4  0  0  0  0
151191  1  0  0  0  0
187191  4  0  0  0  0
190191  4  0  0  0  0
154192  1  0  0  0  0
155193  1  0  0  0  0
160194  1  0  0  0  0
161195  1  0  0  0  0
163196  1  0  0  0  0
164197  1  0  0  0  0
164198  1  0  0  0  0
164199  1  0  0  0  0
165200  1  0  0  0  0
166201  1  0  0  0  0
168202  1  0  0  0  0
169203  1  0  0  0  0
174204  1  0  0  0  0
175205  1  0  0  0  0
180206  1  0  0  0  0
181207  1  0  0  0  0
183208  1  0  0  0  0
184209  1  0  0  0  0
184210  1  0  0  0  0
184211  1  0  0  0  0
185212  1  0  0  0  0
186213  1  0  0  0  0
188214  1  0  0  0  0
189215  1  0  0  0  0
144217  4  0  0  0  0
217218  4  0  0  0  0
218219  4  0  0  0  0
219220  2  0  0  0  0
220221  4  0  0  0  0
216222  1  0  0  0  0
218222  4  0  0  0  0
221222  4  0  0  0  0
221223  4  0  0  0  0
223224  1  0  0  0  0
224225  4  0  0  0  0
225226  4  0  0  0  0
226227  4  0  0  0  0
227228  1  0  0  0  0
228229  1  0  0  0  0
227230  4  0  0  0  0
224231  4  0  0  0  0
230231  4  0  0  0  0
223232  4  0  0  0  0
232233  4  0  0  0  0
233234  2  0  0  0  0
216235  1  0  0  0  0
232235  4  0  0  0  0
234236  4  0  0  0  0
235236  4  0  0  0  0
148237  4  0  0  0  0
236237  4  0  0  0  0
237238  4  0  0  0  0
238239  4  0  0  0  0
239240  2  0  0  0  0
240241  4  0  0  0  0
216242  1  0  0  0  0
238242  4  0  0  0  0
241242  4  0  0  0  0
241243  4  0  0  0  0
243244  1  0  0  0  0
244245  4  0  0  0  0
245246  4  0  0  0  0
246247  4  0  0  0  0
247248  1  0  0  0  0
248249  1  0  0  0  0
247250  4  0  0  0  0
244251  4  0  0  0  0
250251  4  0  0  0  0
243252  4  0  0  0  0
252253  4  0  0  0  0
253254  2  0  0  0  0
217255  4  0  0  0  0
254255  4  0  0  0  0
216256  1  0  0  0  0
252256  4  0  0  0  0
255256  4  0  0  0  0
219257  1  0  0  0  0
220258  1  0  0  0  0
225259  1  0  0  0  0
226260  1  0  0  0  0
228261  1  0  0  0  0
229262  1  0  0  0  0
229263  1  0  0  0  0
229264  1  0  0  0  0
230265  1  0  0  0  0
231266  1  0  0  0  0
233267  1  0  0  0  0
234268  1  0  0  0  0
239269  1  0  0  0  0
240270  1  0  0  0  0
245271  1  0  0  0  0
246272  1  0  0  0  0
248273  1  0  0  0  0
249274  1  0  0  0  0
249275  1  0  0  0  0
249276  1  0  0  0  0
250277  1  0  0  0  0
251278  1  0  0  0  0
253279  1  0  0  0  0
254280  1  0  0  0  0
M  END
