 xtb: 6.5.1 (b24c23e)
          07302203073D

254293  0     0  0            999 V2000
   39.1122   -0.0222   -0.1150 Co  0  0  0  0  0  0  0  0  0  0  0  0
   35.7471   -0.0751   -0.3539 C   0  0  0  0  0  0  0  0  0  0  0  0
   36.4313   -1.2658   -0.4667 C   0  0  0  0  0  0  0  0  0  0  0  0
   35.7900   -2.5301   -0.6635 C   0  0  0  0  0  0  0  0  0  0  0  0
   36.7407   -3.4779   -0.4909 C   0  0  0  0  0  0  0  0  0  0  0  0
   37.9672   -2.7910   -0.2098 C   0  0  0  0  0  0  0  0  0  0  0  0
   37.7737   -1.4332   -0.2335 N   0  0  0  0  0  0  0  0  0  0  0  0
   39.1443   -3.4231    0.1681 C   0  0  0  0  0  0  0  0  0  0  0  0
   39.1576   -4.8999    0.3088 C   0  0  0  0  0  0  0  0  0  0  0  0
   38.9680   -5.7189   -0.8038 C   0  0  0  0  0  0  0  0  0  0  0  0
   38.9851   -7.0995   -0.6769 C   0  0  0  0  0  0  0  0  0  0  0  0
   39.1879   -7.6757    0.5748 C   0  0  0  0  0  0  0  0  0  0  0  0
   39.2091   -9.0231    0.7447 O   0  0  0  0  0  0  0  0  0  0  0  0
   39.3770   -6.8676    1.6944 C   0  0  0  0  0  0  0  0  0  0  0  0
   39.3649   -5.4907    1.5569 C   0  0  0  0  0  0  0  0  0  0  0  0
   40.3164   -2.7177    0.3912 C   0  0  0  0  0  0  0  0  0  0  0  0
   41.5706   -3.3379    0.6975 C   0  0  0  0  0  0  0  0  0  0  0  0
   42.5179   -2.3750    0.5997 C   0  0  0  0  0  0  0  0  0  0  0  0
   40.4914   -1.3710    0.1609 N   0  0  0  0  0  0  0  0  0  0  0  0
   41.8405   -1.1688    0.2436 C   0  0  0  0  0  0  0  0  0  0  0  0
   42.5041    0.0193   -0.0710 C   0  0  0  0  0  0  0  0  0  0  0  0
   41.8130    1.2035   -0.3356 C   0  0  0  0  0  0  0  0  0  0  0  0
   42.4612    2.4411   -0.6328 C   0  0  0  0  0  0  0  0  0  0  0  0
   41.4983    3.3943   -0.6273 C   0  0  0  0  0  0  0  0  0  0  0  0
   40.2639    2.7334   -0.3293 C   0  0  0  0  0  0  0  0  0  0  0  0
   40.4630    1.3779   -0.2053 N   0  0  0  0  0  0  0  0  0  0  0  0
   39.0597    3.3924   -0.1272 C   0  0  0  0  0  0  0  0  0  0  0  0
   39.0461    4.8732   -0.1235 C   0  0  0  0  0  0  0  0  0  0  0  0
   39.8096    5.5859    0.8048 C   0  0  0  0  0  0  0  0  0  0  0  0
   39.8026    6.9692    0.8152 C   0  0  0  0  0  0  0  0  0  0  0  0
   39.0333    7.6636   -0.1168 C   0  0  0  0  0  0  0  0  0  0  0  0
   39.0532    9.0209   -0.0819 O   0  0  0  0  0  0  0  0  0  0  0  0
   38.2722    6.9668   -1.0525 C   0  0  0  0  0  0  0  0  0  0  0  0
   38.2787    5.5806   -1.0496 C   0  0  0  0  0  0  0  0  0  0  0  0
   37.8682    2.7001    0.0393 C   0  0  0  0  0  0  0  0  0  0  0  0
   36.5938    3.3277    0.2337 C   0  0  0  0  0  0  0  0  0  0  0  0
   35.6585    2.3541    0.1331 C   0  0  0  0  0  0  0  0  0  0  0  0
   36.3636    1.1297   -0.0929 C   0  0  0  0  0  0  0  0  0  0  0  0
   37.7191    1.3419   -0.0913 N   0  0  0  0  0  0  0  0  0  0  0  0
   34.6673   -0.0919   -0.4434 H   0  0  0  0  0  0  0  0  0  0  0  0
   34.7406   -2.6558   -0.8777 H   0  0  0  0  0  0  0  0  0  0  0  0
   36.6303   -4.5494   -0.5307 H   0  0  0  0  0  0  0  0  0  0  0  0
   38.8232   -5.2712   -1.7808 H   0  0  0  0  0  0  0  0  0  0  0  0
   38.8436   -7.7325   -1.5463 H   0  0  0  0  0  0  0  0  0  0  0  0
   39.0676   -9.4857   -0.0922 H   0  0  0  0  0  0  0  0  0  0  0  0
   39.5312   -7.3298    2.6616 H   0  0  0  0  0  0  0  0  0  0  0  0
   39.5026   -4.8613    2.4290 H   0  0  0  0  0  0  0  0  0  0  0  0
   41.7011   -4.3828    0.9270 H   0  0  0  0  0  0  0  0  0  0  0  0
   43.5833   -2.4592    0.7416 H   0  0  0  0  0  0  0  0  0  0  0  0
   43.5193    2.5510   -0.8083 H   0  0  0  0  0  0  0  0  0  0  0  0
   41.6022    4.4508   -0.8135 H   0  0  0  0  0  0  0  0  0  0  0  0
   40.4001    5.0455    1.5361 H   0  0  0  0  0  0  0  0  0  0  0  0
   40.3871    7.5241    1.5386 H   0  0  0  0  0  0  0  0  0  0  0  0
   38.4866    9.3994   -0.7675 H   0  0  0  0  0  0  0  0  0  0  0  0
   37.6801    7.5114   -1.7802 H   0  0  0  0  0  0  0  0  0  0  0  0
   37.6975    5.0401   -1.7883 H   0  0  0  0  0  0  0  0  0  0  0  0
   36.4472    4.3799    0.4167 H   0  0  0  0  0  0  0  0  0  0  0  0
   34.5857    2.4365    0.2058 H   0  0  0  0  0  0  0  0  0  0  0  0
   94.6594   -0.0106   -0.0785 Co  0  0  0  0  0  0  0  0  0  0  0  0
   98.0206    0.0210   -0.3368 C   0  0  0  0  0  0  0  0  0  0  0  0
   97.3289    1.1742   -0.6388 C   0  0  0  0  0  0  0  0  0  0  0  0
   97.9580    2.3948   -1.0424 C   0  0  0  0  0  0  0  0  0  0  0  0
   97.0014    3.3522   -1.0130 C   0  0  0  0  0  0  0  0  0  0  0  0
   95.7841    2.7121   -0.6081 C   0  0  0  0  0  0  0  0  0  0  0  0
   95.9871    1.3686   -0.4238 N   0  0  0  0  0  0  0  0  0  0  0  0
   94.6129    3.3905   -0.2940 C   0  0  0  0  0  0  0  0  0  0  0  0
   94.5950    4.8716   -0.3709 C   0  0  0  0  0  0  0  0  0  0  0  0
   94.7466    5.5184   -1.5971 C   0  0  0  0  0  0  0  0  0  0  0  0
   94.7251    6.9026   -1.6737 C   0  0  0  0  0  0  0  0  0  0  0  0
   94.5569    7.6563   -0.5145 C   0  0  0  0  0  0  0  0  0  0  0  0
   94.5331    9.0137   -0.5435 O   0  0  0  0  0  0  0  0  0  0  0  0
   94.4068    7.0212    0.7169 C   0  0  0  0  0  0  0  0  0  0  0  0
   94.4225    5.6391    0.7828 C   0  0  0  0  0  0  0  0  0  0  0  0
   93.4545    2.7228    0.0714 C   0  0  0  0  0  0  0  0  0  0  0  0
   92.2076    3.3746    0.3400 C   0  0  0  0  0  0  0  0  0  0  0  0
   91.2646    2.4044    0.4061 C   0  0  0  0  0  0  0  0  0  0  0  0
   93.2801    1.3570    0.0283 N   0  0  0  0  0  0  0  0  0  0  0  0
   91.9372    1.1640    0.1832 C   0  0  0  0  0  0  0  0  0  0  0  0
   91.2711   -0.0541    0.0165 C   0  0  0  0  0  0  0  0  0  0  0  0
   91.9640   -1.2586   -0.1357 C   0  0  0  0  0  0  0  0  0  0  0  0
   91.3202   -2.5236   -0.2952 C   0  0  0  0  0  0  0  0  0  0  0  0
   92.2872   -3.4670   -0.1873 C   0  0  0  0  0  0  0  0  0  0  0  0
   93.5190   -2.7728    0.0378 C   0  0  0  0  0  0  0  0  0  0  0  0
   93.3143   -1.4124    0.0055 N   0  0  0  0  0  0  0  0  0  0  0  0
   94.7226   -3.3956    0.3352 C   0  0  0  0  0  0  0  0  0  0  0  0
   94.7417   -4.8628    0.5291 C   0  0  0  0  0  0  0  0  0  0  0  0
   93.9508   -5.4561    1.5168 C   0  0  0  0  0  0  0  0  0  0  0  0
   93.9638   -6.8260    1.7073 C   0  0  0  0  0  0  0  0  0  0  0  0
   94.7673   -7.6288    0.8993 C   0  0  0  0  0  0  0  0  0  0  0  0
   94.7529   -8.9697    1.1104 O   0  0  0  0  0  0  0  0  0  0  0  0
   95.5561   -7.0524   -0.0938 C   0  0  0  0  0  0  0  0  0  0  0  0
   95.5432   -5.6778   -0.2714 C   0  0  0  0  0  0  0  0  0  0  0  0
   95.9093   -2.6798    0.4323 C   0  0  0  0  0  0  0  0  0  0  0  0
   97.1829   -3.2652    0.7340 C   0  0  0  0  0  0  0  0  0  0  0  0
   98.1157   -2.3086    0.5131 C   0  0  0  0  0  0  0  0  0  0  0  0
   97.4093   -1.1336    0.1038 C   0  0  0  0  0  0  0  0  0  0  0  0
   96.0550   -1.3527    0.1166 N   0  0  0  0  0  0  0  0  0  0  0  0
   99.1007    0.0305   -0.4252 H   0  0  0  0  0  0  0  0  0  0  0  0
   99.0041    2.4914   -1.2861 H   0  0  0  0  0  0  0  0  0  0  0  0
   97.1028    4.4042   -1.2250 H   0  0  0  0  0  0  0  0  0  0  0  0
   94.8645    4.9322   -2.5016 H   0  0  0  0  0  0  0  0  0  0  0  0
   94.8365    7.4011   -2.6307 H   0  0  0  0  0  0  0  0  0  0  0  0
   94.6456    9.3492   -1.4431 H   0  0  0  0  0  0  0  0  0  0  0  0
   94.2799    7.6202    1.6102 H   0  0  0  0  0  0  0  0  0  0  0  0
   94.3159    5.1446    1.7418 H   0  0  0  0  0  0  0  0  0  0  0  0
   92.0773    4.4402    0.4348 H   0  0  0  0  0  0  0  0  0  0  0  0
   90.2045    2.5040    0.5750 H   0  0  0  0  0  0  0  0  0  0  0  0
   90.2624   -2.6564   -0.4555 H   0  0  0  0  0  0  0  0  0  0  0  0
   92.1871   -4.5379   -0.2575 H   0  0  0  0  0  0  0  0  0  0  0  0
   93.3345   -4.8306    2.1529 H   0  0  0  0  0  0  0  0  0  0  0  0
   93.3581   -7.2874    2.4774 H   0  0  0  0  0  0  0  0  0  0  0  0
   95.3444   -9.4296    0.4995 H   0  0  0  0  0  0  0  0  0  0  0  0
   96.1749   -7.6816   -0.7247 H   0  0  0  0  0  0  0  0  0  0  0  0
   96.1460   -5.2329   -1.0553 H   0  0  0  0  0  0  0  0  0  0  0  0
   97.3312   -4.2799    1.0661 H   0  0  0  0  0  0  0  0  0  0  0  0
   99.1875   -2.3733    0.6141 H   0  0  0  0  0  0  0  0  0  0  0  0
   43.9075    0.0296   -0.0923 C   0  0  0  0  0  0  0  0  0  0  0  0
   45.1320    0.0371   -0.1072 C   0  0  0  0  0  0  0  0  0  0  0  0
   46.4744    0.0452   -0.1169 C   0  0  0  0  0  0  0  0  0  0  0  0
   47.7054    0.0499   -0.1205 C   0  0  0  0  0  0  0  0  0  0  0  0
   49.0429    0.0532   -0.1195 C   0  0  0  0  0  0  0  0  0  0  0  0
   50.2740    0.0551   -0.1136 C   0  0  0  0  0  0  0  0  0  0  0  0
   51.6161    0.0537   -0.1068 C   0  0  0  0  0  0  0  0  0  0  0  0
   52.8411    0.0504   -0.0983 C   0  0  0  0  0  0  0  0  0  0  0  0
   62.4281   -0.0510    0.0170 C   0  0  0  0  0  0  0  0  0  0  0  0
   63.6538   -0.0612    0.0310 C   0  0  0  0  0  0  0  0  0  0  0  0
   64.9941   -0.0686    0.0416 C   0  0  0  0  0  0  0  0  0  0  0  0
   66.2263   -0.0697    0.0472 C   0  0  0  0  0  0  0  0  0  0  0  0
   67.5618   -0.0686    0.0465 C   0  0  0  0  0  0  0  0  0  0  0  0
   68.7940   -0.0642    0.0417 C   0  0  0  0  0  0  0  0  0  0  0  0
   70.1342   -0.0602    0.0314 C   0  0  0  0  0  0  0  0  0  0  0  0
   71.3601   -0.0531    0.0215 C   0  0  0  0  0  0  0  0  0  0  0  0
   80.9382   -0.0949    0.0222 C   0  0  0  0  0  0  0  0  0  0  0  0
   82.1642   -0.1038    0.0321 C   0  0  0  0  0  0  0  0  0  0  0  0
   83.5042   -0.1089    0.0385 C   0  0  0  0  0  0  0  0  0  0  0  0
   84.7365   -0.1092    0.0387 C   0  0  0  0  0  0  0  0  0  0  0  0
   86.0720   -0.1039    0.0371 C   0  0  0  0  0  0  0  0  0  0  0  0
   87.3041   -0.0947    0.0314 C   0  0  0  0  0  0  0  0  0  0  0  0
   88.6446   -0.0840    0.0273 C   0  0  0  0  0  0  0  0  0  0  0  0
   89.8702   -0.0702    0.0224 C   0  0  0  0  0  0  0  0  0  0  0  0
   57.6357    0.0087   -0.0531 Co  0  0  0  0  0  0  0  0  0  0  0  0
   54.2430    0.0424   -0.0890 C   0  0  0  0  0  0  0  0  0  0  0  0
   54.9248    0.8967    0.7828 C   0  0  0  0  0  0  0  0  0  0  0  0
   54.2765    1.7644    1.7131 C   0  0  0  0  0  0  0  0  0  0  0  0
   55.2357    2.5808    2.2154 C   0  0  0  0  0  0  0  0  0  0  0  0
   56.4642    2.2138    1.5797 C   0  0  0  0  0  0  0  0  0  0  0  0
   56.2707    1.1322    0.7532 N   0  0  0  0  0  0  0  0  0  0  0  0
   57.6469    2.9359    1.6805 C   0  0  0  0  0  0  0  0  0  0  0  0
   57.6520    4.2085    2.4349 C   0  0  0  0  0  0  0  0  0  0  0  0
   58.5215    4.3919    3.5136 C   0  0  0  0  0  0  0  0  0  0  0  0
   58.5302    5.5792    4.2230 C   0  0  0  0  0  0  0  0  0  0  0  0
   57.6690    6.6114    3.8542 C   0  0  0  0  0  0  0  0  0  0  0  0
   57.7085    7.7651    4.5677 O   0  0  0  0  0  0  0  0  0  0  0  0
   56.7986    6.4443    2.7793 C   0  0  0  0  0  0  0  0  0  0  0  0
   56.7901    5.2475    2.0805 C   0  0  0  0  0  0  0  0  0  0  0  0
   58.8256    2.4934    1.0957 C   0  0  0  0  0  0  0  0  0  0  0  0
   60.0621    3.2144    1.1212 C   0  0  0  0  0  0  0  0  0  0  0  0
   61.0160    2.3707    0.6561 C   0  0  0  0  0  0  0  0  0  0  0  0
   59.0102    1.2477    0.5411 N   0  0  0  0  0  0  0  0  0  0  0  0
   60.3562    1.1458    0.3344 C   0  0  0  0  0  0  0  0  0  0  0  0
   61.0282   -0.0334   -0.0043 C   0  0  0  0  0  0  0  0  0  0  0  0
   60.3361   -1.1920   -0.3721 C   0  0  0  0  0  0  0  0  0  0  0  0
   60.9729   -2.4305   -0.6876 C   0  0  0  0  0  0  0  0  0  0  0  0
   60.0142   -3.2389   -1.2033 C   0  0  0  0  0  0  0  0  0  0  0  0
   58.7978   -2.4844   -1.2095 C   0  0  0  0  0  0  0  0  0  0  0  0
   58.9964   -1.2522   -0.6312 N   0  0  0  0  0  0  0  0  0  0  0  0
   57.6265   -2.8888   -1.8355 C   0  0  0  0  0  0  0  0  0  0  0  0
   57.6268   -4.1466   -2.6147 C   0  0  0  0  0  0  0  0  0  0  0  0
   56.7413   -5.1788   -2.3011 C   0  0  0  0  0  0  0  0  0  0  0  0
   56.7458   -6.3602   -3.0258 C   0  0  0  0  0  0  0  0  0  0  0  0
   57.6359   -6.5180   -4.0859 C   0  0  0  0  0  0  0  0  0  0  0  0
   57.6715   -7.6561   -4.8243 O   0  0  0  0  0  0  0  0  0  0  0  0
   58.5220   -5.4927   -4.4130 C   0  0  0  0  0  0  0  0  0  0  0  0
   58.5173   -4.3214   -3.6776 C   0  0  0  0  0  0  0  0  0  0  0  0
   56.4562   -2.1456   -1.7487 C   0  0  0  0  0  0  0  0  0  0  0  0
   55.2321   -2.4851   -2.4081 C   0  0  0  0  0  0  0  0  0  0  0  0
   54.2771   -1.6637   -1.9060 C   0  0  0  0  0  0  0  0  0  0  0  0
   54.9246   -0.8174   -0.9556 C   0  0  0  0  0  0  0  0  0  0  0  0
   56.2666   -1.0712   -0.9114 N   0  0  0  0  0  0  0  0  0  0  0  0
   53.2218    1.7454    1.9359 H   0  0  0  0  0  0  0  0  0  0  0  0
   55.1303    3.3629    2.9496 H   0  0  0  0  0  0  0  0  0  0  0  0
   59.1820    3.5845    3.8095 H   0  0  0  0  0  0  0  0  0  0  0  0
   59.1971    5.7207    5.0644 H   0  0  0  0  0  0  0  0  0  0  0  0
   57.0718    8.4104    4.2320 H   0  0  0  0  0  0  0  0  0  0  0  0
   56.1333    7.2518    2.4929 H   0  0  0  0  0  0  0  0  0  0  0  0
   56.1222    5.1245    1.2352 H   0  0  0  0  0  0  0  0  0  0  0  0
   60.1762    4.2327    1.4553 H   0  0  0  0  0  0  0  0  0  0  0  0
   62.0738    2.5452    0.5416 H   0  0  0  0  0  0  0  0  0  0  0  0
   62.0203   -2.6366   -0.5368 H   0  0  0  0  0  0  0  0  0  0  0  0
   60.1121   -4.2544   -1.5508 H   0  0  0  0  0  0  0  0  0  0  0  0
   56.0576   -5.0633   -1.4675 H   0  0  0  0  0  0  0  0  0  0  0  0
   56.0620   -7.1628   -2.7713 H   0  0  0  0  0  0  0  0  0  0  0  0
   57.0176   -8.2980   -4.5161 H   0  0  0  0  0  0  0  0  0  0  0  0
   59.2048   -5.6271   -5.2428 H   0  0  0  0  0  0  0  0  0  0  0  0
   59.1979   -3.5192   -3.9402 H   0  0  0  0  0  0  0  0  0  0  0  0
   55.1261   -3.2550   -3.1549 H   0  0  0  0  0  0  0  0  0  0  0  0
   53.2260   -1.6270   -2.1429 H   0  0  0  0  0  0  0  0  0  0  0  0
   76.1494   -0.0525   -0.0107 Co  0  0  0  0  0  0  0  0  0  0  0  0
   72.7597   -0.0433    0.0008 C   0  0  0  0  0  0  0  0  0  0  0  0
   73.4505    0.8202    0.8581 C   0  0  0  0  0  0  0  0  0  0  0  0
   72.8138    1.6845    1.7994 C   0  0  0  0  0  0  0  0  0  0  0  0
   73.7729    2.5220    2.2670 C   0  0  0  0  0  0  0  0  0  0  0  0
   74.9895    2.1686    1.6014 C   0  0  0  0  0  0  0  0  0  0  0  0
   74.7901    1.0774    0.7892 N   0  0  0  0  0  0  0  0  0  0  0  0
   76.1646    2.9078    1.6615 C   0  0  0  0  0  0  0  0  0  0  0  0
   76.1670    4.1929    2.3933 C   0  0  0  0  0  0  0  0  0  0  0  0
   77.0602    4.4127    3.4457 C   0  0  0  0  0  0  0  0  0  0  0  0
   77.0599    5.6107    4.1367 C   0  0  0  0  0  0  0  0  0  0  0  0
   76.1657    6.6175    3.7759 C   0  0  0  0  0  0  0  0  0  0  0  0
   76.1961    7.7816    4.4719 O   0  0  0  0  0  0  0  0  0  0  0  0
   75.2721    6.4145    2.7263 C   0  0  0  0  0  0  0  0  0  0  0  0
   75.2728    5.2071    2.0462 C   0  0  0  0  0  0  0  0  0  0  0  0
   77.3369    2.4661    1.0617 C   0  0  0  0  0  0  0  0  0  0  0  0
   78.5693    3.1942    1.0554 C   0  0  0  0  0  0  0  0  0  0  0  0
   79.5230    2.3438    0.6010 C   0  0  0  0  0  0  0  0  0  0  0  0
   77.5217    1.2105    0.5300 N   0  0  0  0  0  0  0  0  0  0  0  0
   78.8662    1.1088    0.3145 C   0  0  0  0  0  0  0  0  0  0  0  0
   79.5389   -0.0786    0.0038 C   0  0  0  0  0  0  0  0  0  0  0  0
   78.8456   -1.2443   -0.3408 C   0  0  0  0  0  0  0  0  0  0  0  0
   79.4794   -2.4867   -0.6463 C   0  0  0  0  0  0  0  0  0  0  0  0
   78.5214   -3.2924   -1.1687 C   0  0  0  0  0  0  0  0  0  0  0  0
   77.3081   -2.5336   -1.1852 C   0  0  0  0  0  0  0  0  0  0  0  0
   77.5077   -1.3009   -0.6105 N   0  0  0  0  0  0  0  0  0  0  0  0
   76.1364   -2.9336   -1.8161 C   0  0  0  0  0  0  0  0  0  0  0  0
   76.1356   -4.1871   -2.6010 C   0  0  0  0  0  0  0  0  0  0  0  0
   75.2387   -5.2139   -2.3015 C   0  0  0  0  0  0  0  0  0  0  0  0
   75.2391   -6.3906   -3.0334 C   0  0  0  0  0  0  0  0  0  0  0  0
   76.1371   -6.5497   -4.0868 C   0  0  0  0  0  0  0  0  0  0  0  0
   76.1682   -7.6825   -4.8328 O   0  0  0  0  0  0  0  0  0  0  0  0
   77.0361   -5.5307   -4.3985 C   0  0  0  0  0  0  0  0  0  0  0  0
   77.0353   -4.3640   -3.6560 C   0  0  0  0  0  0  0  0  0  0  0  0
   74.9656   -2.1930   -1.7198 C   0  0  0  0  0  0  0  0  0  0  0  0
   73.7354   -2.5323   -2.3684 C   0  0  0  0  0  0  0  0  0  0  0  0
   72.7801   -1.7282   -1.8393 C   0  0  0  0  0  0  0  0  0  0  0  0
   73.4342   -0.8891   -0.8871 C   0  0  0  0  0  0  0  0  0  0  0  0
   74.7784   -1.1280   -0.8689 N   0  0  0  0  0  0  0  0  0  0  0  0
   71.7662    1.6502    2.0518 H   0  0  0  0  0  0  0  0  0  0  0  0
   73.6746    3.3086    2.9973 H   0  0  0  0  0  0  0  0  0  0  0  0
   77.7455    3.6247    3.7371 H   0  0  0  0  0  0  0  0  0  0  0  0
   77.7446    5.7800    4.9585 H   0  0  0  0  0  0  0  0  0  0  0  0
   75.5360    8.4073    4.1443 H   0  0  0  0  0  0  0  0  0  0  0  0
   74.5812    7.2022    2.4456 H   0  0  0  0  0  0  0  0  0  0  0  0
   74.5860    5.0558    1.2208 H   0  0  0  0  0  0  0  0  0  0  0  0
   78.6819    4.2206    1.3643 H   0  0  0  0  0  0  0  0  0  0  0  0
   80.5787    2.5205    0.4726 H   0  0  0  0  0  0  0  0  0  0  0  0
   80.5248   -2.6968   -0.4874 H   0  0  0  0  0  0  0  0  0  0  0  0
   78.6181   -4.3092   -1.5129 H   0  0  0  0  0  0  0  0  0  0  0  0
   74.5494   -5.0981   -1.4725 H   0  0  0  0  0  0  0  0  0  0  0  0
   74.5459   -7.1885   -2.7900 H   0  0  0  0  0  0  0  0  0  0  0  0
   75.5045   -8.3198   -4.5363 H   0  0  0  0  0  0  0  0  0  0  0  0
   77.7254   -5.6664   -5.2226 H   0  0  0  0  0  0  0  0  0  0  0  0
   77.7255   -3.5665   -3.9074 H   0  0  0  0  0  0  0  0  0  0  0  0
   73.6252   -3.2910   -3.1260 H   0  0  0  0  0  0  0  0  0  0  0  0
   71.7254   -1.6978   -2.0605 H   0  0  0  0  0  0  0  0  0  0  0  0
  2  3  4  0  0  0  0
  3  4  1  0  0  0  0
  4  5  2  0  0  0  0
  5  6  4  0  0  0  0
  1  7  1  0  0  0  0
  3  7  4  0  0  0  0
  6  7  4  0  0  0  0
  6  8  4  0  0  0  0
  8  9  1  0  0  0  0
  9 10  4  0  0  0  0
 10 11  4  0  0  0  0
 11 12  4  0  0  0  0
 12 13  1  0  0  0  0
 12 14  4  0  0  0  0
  9 15  4  0  0  0  0
 14 15  4  0  0  0  0
  8 16  4  0  0  0  0
 16 17  4  0  0  0  0
 17 18  2  0  0  0  0
  1 19  1  0  0  0  0
 16 19  4  0  0  0  0
 18 20  4  0  0  0  0
 19 20  4  0  0  0  0
 20 21  4  0  0  0  0
 21 22  4  0  0  0  0
 22 23  4  0  0  0  0
 23 24  2  0  0  0  0
 24 25  4  0  0  0  0
  1 26  1  0  0  0  0
 22 26  4  0  0  0  0
 25 26  4  0  0  0  0
 25 27  4  0  0  0  0
 27 28  1  0  0  0  0
 28 29  4  0  0  0  0
 29 30  4  0  0  0  0
 30 31  4  0  0  0  0
 31 32  1  0  0  0  0
 31 33  4  0  0  0  0
 28 34  4  0  0  0  0
 33 34  4  0  0  0  0
 27 35  4  0  0  0  0
 35 36  4  0  0  0  0
 36 37  2  0  0  0  0
  2 38  4  0  0  0  0
 37 38  1  0  0  0  0
  1 39  1  0  0  0  0
 35 39  4  0  0  0  0
 38 39  4  0  0  0  0
  2 40  1  0  0  0  0
  4 41  1  0  0  0  0
  5 42  1  0  0  0  0
 10 43  1  0  0  0  0
 11 44  1  0  0  0  0
 13 45  1  0  0  0  0
 14 46  1  0  0  0  0
 15 47  1  0  0  0  0
 17 48  1  0  0  0  0
 18 49  1  0  0  0  0
 23 50  1  0  0  0  0
 24 51  1  0  0  0  0
 29 52  1  0  0  0  0
 30 53  1  0  0  0  0
 32 54  1  0  0  0  0
 33 55  1  0  0  0  0
 34 56  1  0  0  0  0
 36 57  1  0  0  0  0
 37 58  1  0  0  0  0
 60 61  4  0  0  0  0
 61 62  1  0  0  0  0
 62 63  2  0  0  0  0
 63 64  4  0  0  0  0
 59 65  1  0  0  0  0
 61 65  4  0  0  0  0
 64 65  4  0  0  0  0
 64 66  4  0  0  0  0
 66 67  1  0  0  0  0
 67 68  4  0  0  0  0
 68 69  4  0  0  0  0
 69 70  4  0  0  0  0
 70 71  1  0  0  0  0
 70 72  4  0  0  0  0
 67 73  4  0  0  0  0
 72 73  4  0  0  0  0
 66 74  4  0  0  0  0
 74 75  4  0  0  0  0
 75 76  2  0  0  0  0
 59 77  1  0  0  0  0
 74 77  4  0  0  0  0
 76 78  4  0  0  0  0
 77 78  4  0  0  0  0
 78 79  4  0  0  0  0
 79 80  4  0  0  0  0
 80 81  4  0  0  0  0
 81 82  2  0  0  0  0
 82 83  4  0  0  0  0
 59 84  1  0  0  0  0
 80 84  4  0  0  0  0
 83 84  4  0  0  0  0
 83 85  4  0  0  0  0
 85 86  1  0  0  0  0
 86 87  4  0  0  0  0
 87 88  4  0  0  0  0
 88 89  4  0  0  0  0
 89 90  1  0  0  0  0
 89 91  4  0  0  0  0
 86 92  4  0  0  0  0
 91 92  4  0  0  0  0
 85 93  4  0  0  0  0
 93 94  4  0  0  0  0
 94 95  2  0  0  0  0
 60 96  4  0  0  0  0
 95 96  1  0  0  0  0
 59 97  1  0  0  0  0
 93 97  4  0  0  0  0
 96 97  4  0  0  0  0
 60 98  1  0  0  0  0
 62 99  1  0  0  0  0
 63100  1  0  0  0  0
 68101  1  0  0  0  0
 69102  1  0  0  0  0
 71103  1  0  0  0  0
 72104  1  0  0  0  0
 73105  1  0  0  0  0
 75106  1  0  0  0  0
 76107  1  0  0  0  0
 81108  1  0  0  0  0
 82109  1  0  0  0  0
 87110  1  0  0  0  0
 88111  1  0  0  0  0
 90112  1  0  0  0  0
 91113  1  0  0  0  0
 92114  1  0  0  0  0
 94115  1  0  0  0  0
 95116  1  0  0  0  0
 21117  4  0  0  0  0
117118  3  0  0  0  0
118119  4  0  0  0  0
119120  3  0  0  0  0
120121  4  0  0  0  0
121122  3  0  0  0  0
122123  4  0  0  0  0
123124  3  0  0  0  0
125126  3  0  0  0  0
126127  4  0  0  0  0
127128  3  0  0  0  0
128129  4  0  0  0  0
129130  3  0  0  0  0
130131  4  0  0  0  0
131132  3  0  0  0  0
133134  3  0  0  0  0
134135  4  0  0  0  0
135136  3  0  0  0  0
136137  4  0  0  0  0
137138  3  0  0  0  0
138139  4  0  0  0  0
 79140  4  0  0  0  0
139140  3  0  0  0  0
124142  4  0  0  0  0
142143  4  0  0  0  0
143144  4  0  0  0  0
144145  2  0  0  0  0
145146  4  0  0  0  0
141147  1  0  0  0  0
143147  4  0  0  0  0
146147  4  0  0  0  0
146148  4  0  0  0  0
148149  1  0  0  0  0
149150  4  0  0  0  0
150151  4  0  0  0  0
151152  4  0  0  0  0
152153  1  0  0  0  0
152154  4  0  0  0  0
149155  4  0  0  0  0
154155  4  0  0  0  0
148156  4  0  0  0  0
156157  4  0  0  0  0
157158  2  0  0  0  0
141159  1  0  0  0  0
156159  4  0  0  0  0
158160  4  0  0  0  0
159160  4  0  0  0  0
125161  4  0  0  0  0
160161  4  0  0  0  0
161162  4  0  0  0  0
162163  4  0  0  0  0
163164  2  0  0  0  0
164165  4  0  0  0  0
141166  1  0  0  0  0
162166  4  0  0  0  0
165166  4  0  0  0  0
165167  4  0  0  0  0
167168  1  0  0  0  0
168169  4  0  0  0  0
169170  4  0  0  0  0
170171  4  0  0  0  0
171172  1  0  0  0  0
171173  4  0  0  0  0
168174  4  0  0  0  0
173174  4  0  0  0  0
167175  4  0  0  0  0
175176  4  0  0  0  0
176177  2  0  0  0  0
142178  4  0  0  0  0
177178  4  0  0  0  0
141179  1  0  0  0  0
175179  4  0  0  0  0
178179  4  0  0  0  0
144180  1  0  0  0  0
145181  1  0  0  0  0
150182  1  0  0  0  0
151183  1  0  0  0  0
153184  1  0  0  0  0
154185  1  0  0  0  0
155186  1  0  0  0  0
157187  1  0  0  0  0
158188  1  0  0  0  0
163189  1  0  0  0  0
164190  1  0  0  0  0
169191  1  0  0  0  0
170192  1  0  0  0  0
172193  1  0  0  0  0
173194  1  0  0  0  0
174195  1  0  0  0  0
176196  1  0  0  0  0
177197  1  0  0  0  0
132199  4  0  0  0  0
199200  4  0  0  0  0
200201  4  0  0  0  0
201202  2  0  0  0  0
202203  4  0  0  0  0
198204  1  0  0  0  0
200204  4  0  0  0  0
203204  4  0  0  0  0
203205  4  0  0  0  0
205206  1  0  0  0  0
206207  4  0  0  0  0
207208  4  0  0  0  0
208209  4  0  0  0  0
209210  1  0  0  0  0
209211  4  0  0  0  0
206212  4  0  0  0  0
211212  4  0  0  0  0
205213  4  0  0  0  0
213214  4  0  0  0  0
214215  2  0  0  0  0
198216  1  0  0  0  0
213216  4  0  0  0  0
215217  4  0  0  0  0
216217  4  0  0  0  0
133218  4  0  0  0  0
217218  4  0  0  0  0
218219  4  0  0  0  0
219220  4  0  0  0  0
220221  2  0  0  0  0
221222  4  0  0  0  0
198223  1  0  0  0  0
219223  4  0  0  0  0
222223  4  0  0  0  0
222224  4  0  0  0  0
224225  1  0  0  0  0
225226  4  0  0  0  0
226227  4  0  0  0  0
227228  4  0  0  0  0
228229  1  0  0  0  0
228230  4  0  0  0  0
225231  4  0  0  0  0
230231  4  0  0  0  0
224232  4  0  0  0  0
232233  4  0  0  0  0
233234  2  0  0  0  0
199235  4  0  0  0  0
234235  4  0  0  0  0
198236  1  0  0  0  0
232236  4  0  0  0  0
235236  4  0  0  0  0
201237  1  0  0  0  0
202238  1  0  0  0  0
207239  1  0  0  0  0
208240  1  0  0  0  0
210241  1  0  0  0  0
211242  1  0  0  0  0
212243  1  0  0  0  0
214244  1  0  0  0  0
215245  1  0  0  0  0
220246  1  0  0  0  0
221247  1  0  0  0  0
226248  1  0  0  0  0
227249  1  0  0  0  0
229250  1  0  0  0  0
230251  1  0  0  0  0
231252  1  0  0  0  0
233253  1  0  0  0  0
234254  1  0  0  0  0
M  END
