116

C 11.714611 -0.010109 -0.050450
C 12.443104 -1.268287 0.514154
C 11.834494 -2.432806 0.923868
C 12.856283 -3.284068 1.418716
C 14.054352 -2.606674 1.300863
N 13.795745 -1.399544 0.701175
C 15.476841 -3.108787 1.790395
C 16.606672 -2.433561 1.445553
C 17.911310 -2.829800 1.934744
C 18.813676 -1.979541 1.459441
N 16.802949 -1.327297 0.661085
C 18.134501 -1.002506 0.631094
C 18.802146 0.000000 -0.000000
C 18.024496 1.032875 -0.920695
C 18.564887 1.768261 -1.957660
C 17.540095 2.601895 -2.470510
C 16.399849 2.344539 -1.739835
C 14.990550 3.050255 -1.923248
C 14.963304 4.388571 -2.556125
C 14.590628 4.533749 -3.898423
C 14.579684 5.795759 -4.495361
C 14.944441 6.920199 -3.753828
C 15.319825 6.783515 -2.416629
C 15.330106 5.521083 -1.820155
C 13.864922 2.428962 -1.484028
C 12.543043 3.017716 -1.607107
C 11.657227 2.165598 -1.099683
C 12.378850 1.010827 -0.623680
N 13.699942 1.218641 -0.869730
N 16.690514 1.350571 -0.835203
C 15.514306 -4.300619 2.671245
C 15.261949 -4.172150 4.042182
C 15.286514 -5.295064 4.871418
C 15.562571 -6.553052 4.333756
C 15.814332 -6.689370 2.967848
C 15.789349 -5.566313 2.138894
H 10.636776 0.038258 0.047677
H 10.776130 -2.639555 0.886800
H 12.729095 -4.270844 1.837868
H 14.496959 -0.710153 0.441397
H 18.122386 -3.661259 2.583347
H 19.867211 -2.029849 1.664803
H 19.586802 1.722331 -2.301891
H 17.624607 3.313603 -3.277908
H 14.306394 3.649902 -4.465607
H 14.285398 5.893873 -5.535256
H 14.935649 7.901763 -4.216784
H 15.604857 7.653123 -1.833195
H 15.621132 5.403780 -0.778512
H 12.315195 3.978296 -2.032833
H 10.593723 2.309922 -1.041887
H 16.007217 0.889170 -0.240257
H 15.049629 -3.186367 4.450390
H 15.091268 -5.180774 5.932823
H 15.583229 -7.425619 4.978831
H 16.032133 -7.663889 2.542891
H 15.987295 -5.659183 1.073221
C 29.748985 -0.041306 -0.030679
C 29.020492 1.006377 -0.927422
C 29.629101 1.874010 -1.805592
C 28.607312 2.684902 -2.364141
C 27.409244 2.289151 -1.801883
N 27.667851 1.231533 -0.966280
C 25.986755 2.946185 -2.046966
C 24.856923 2.346092 -1.583569
C 23.552285 2.957620 -1.733055
C 22.649919 2.164832 -1.167070
N 24.660647 1.164438 -0.918060
C 23.329094 0.998665 -0.637155
C 22.661449 -0.000000 0.000000
C 23.439100 -1.273515 0.540988
C 22.898709 -2.525177 0.763322
C 23.923501 -3.344823 1.298244
C 25.063746 -2.574208 1.377440
C 26.473046 -3.041336 1.937321
C 26.500291 -4.184969 2.877388
C 26.872968 -5.460787 2.435650
C 26.883912 -6.539345 3.322057
C 26.519154 -6.348796 4.655446
C 26.143770 -5.081215 5.102688
C 26.133489 -4.002896 4.215702
C 27.598673 -2.378922 1.562986
C 28.920553 -2.741559 2.042855
C 29.806369 -1.918930 1.488901
C 29.084745 -0.995512 0.647845
N 27.763653 -1.306731 0.730733
N 24.773082 -1.331828 0.864777
C 25.949289 4.251526 -2.748708
C 26.201646 5.436422 -2.047286
C 26.177081 6.665669 -2.708740
C 25.901025 6.716491 -4.075866
C 25.649263 5.539493 -4.782238
C 25.674246 4.310441 -4.120535
H 30.826819 0.026782 0.054950
H 30.687465 1.928749 -2.008380
H 28.734500 3.485192 -3.077548
H 26.966637 0.702317 -0.453761
H 23.341209 3.899100 -2.208058
H 21.596385 2.372017 -1.124896
H 21.876794 -2.816858 0.574836
H 23.838989 -4.378778 1.597167
H 27.157201 -5.596380 1.394259
H 27.178197 -7.521608 2.966854
H 26.527946 -7.186473 5.345440
H 25.858738 -4.924848 6.138140
H 25.842463 -3.010862 4.554298
H 29.148401 -3.536612 2.729767
H 30.869872 -1.928276 1.644086
H 25.456378 -0.596848 0.701513
H 26.413966 5.384739 -0.981579
H 26.372328 7.576708 -2.152278
H 25.880366 7.672329 -4.589549
H 25.431462 5.571222 -5.844909
H 25.476300 3.386397 -4.659449
C 20.120839 -0.000000 -0.000000
C 21.342757 -0.000000 -0.000000
