 xtb: 6.5.1 (b24c23e)
          07292214003D

116129  0     0  0            999 V2000
   11.8914   -0.1125    0.0503 C   0  0  0  0  0  0  0  0  0  0  0  0
   12.5065   -1.1944    0.6668 C   0  0  0  0  0  0  0  0  0  0  0  0
   11.8655   -2.3186    1.2587 C   0  0  0  0  0  0  0  0  0  0  0  0
   12.8345   -3.1311    1.7769 C   0  0  0  0  0  0  0  0  0  0  0  0
   14.0984   -2.5229    1.5292 C   0  0  0  0  0  0  0  0  0  0  0  0
   13.8502   -1.3679    0.8428 N   0  0  0  0  0  0  0  0  0  0  0  0
   15.3621   -2.9845    1.9122 C   0  0  0  0  0  0  0  0  0  0  0  0
   16.5733   -2.3545    1.6132 C   0  0  0  0  0  0  0  0  0  0  0  0
   17.8568   -2.7974    2.1257 C   0  0  0  0  0  0  0  0  0  0  0  0
   18.7818   -1.9626    1.6085 C   0  0  0  0  0  0  0  0  0  0  0  0
   16.7391   -1.2577    0.8241 N   0  0  0  0  0  0  0  0  0  0  0  0
   18.0659   -1.0133    0.7808 C   0  0  0  0  0  0  0  0  0  0  0  0
   18.7128   -0.0149    0.0233 C   0  0  0  0  0  0  0  0  0  0  0  0
   18.0668    0.9817   -0.7343 C   0  0  0  0  0  0  0  0  0  0  0  0
   18.6904    1.9604   -1.5507 C   0  0  0  0  0  0  0  0  0  0  0  0
   17.7158    2.7731   -2.0599 C   0  0  0  0  0  0  0  0  0  0  0  0
   16.4627    2.3141   -1.5690 C   0  0  0  0  0  0  0  0  0  0  0  0
   15.2020    2.8615   -1.8330 C   0  0  0  0  0  0  0  0  0  0  0  0
   15.1744    4.1124   -2.6290 C   0  0  0  0  0  0  0  0  0  0  0  0
   14.4971    4.1650   -3.8483 C   0  0  0  0  0  0  0  0  0  0  0  0
   14.4733    5.3380   -4.5875 C   0  0  0  0  0  0  0  0  0  0  0  0
   15.1209    6.4729   -4.1184 C   0  0  0  0  0  0  0  0  0  0  0  0
   15.7966    6.4293   -2.9064 C   0  0  0  0  0  0  0  0  0  0  0  0
   15.8265    5.2569   -2.1666 C   0  0  0  0  0  0  0  0  0  0  0  0
   13.9860    2.3175   -1.4078 C   0  0  0  0  0  0  0  0  0  0  0  0
   12.6864    2.9242   -1.6524 C   0  0  0  0  0  0  0  0  0  0  0  0
   11.7686    2.0842   -1.1330 C   0  0  0  0  0  0  0  0  0  0  0  0
   12.5068    0.9738   -0.5580 C   0  0  0  0  0  0  0  0  0  0  0  0
   13.8393    1.1561   -0.7271 N   0  0  0  0  0  0  0  0  0  0  0  0
   16.7245    1.2186   -0.7893 N   0  0  0  0  0  0  0  0  0  0  0  0
   15.4036   -4.2415    2.6992 C   0  0  0  0  0  0  0  0  0  0  0  0
   14.7564   -4.3329    3.9323 C   0  0  0  0  0  0  0  0  0  0  0  0
   14.7978   -5.5126    4.6604 C   0  0  0  0  0  0  0  0  0  0  0  0
   15.4802   -6.6155    4.1653 C   0  0  0  0  0  0  0  0  0  0  0  0
   16.1259   -6.5331    2.9391 C   0  0  0  0  0  0  0  0  0  0  0  0
   16.0911   -5.3538    2.2106 C   0  0  0  0  0  0  0  0  0  0  0  0
   10.8062   -0.1253    0.0497 H   0  0  0  0  0  0  0  0  0  0  0  0
   10.7988   -2.4760    1.2746 H   0  0  0  0  0  0  0  0  0  0  0  0
   12.6922   -4.0731    2.2813 H   0  0  0  0  0  0  0  0  0  0  0  0
   14.5673   -0.7303    0.5139 H   0  0  0  0  0  0  0  0  0  0  0  0
   18.0062   -3.6213    2.8046 H   0  0  0  0  0  0  0  0  0  0  0  0
   19.8465   -1.9593    1.7729 H   0  0  0  0  0  0  0  0  0  0  0  0
   19.7500    2.0222   -1.7330 H   0  0  0  0  0  0  0  0  0  0  0  0
   17.8489    3.6081   -2.7282 H   0  0  0  0  0  0  0  0  0  0  0  0
   14.0030    3.2758   -4.2239 H   0  0  0  0  0  0  0  0  0  0  0  0
   13.9476    5.3656   -5.5355 H   0  0  0  0  0  0  0  0  0  0  0  0
   15.0993    7.3897   -4.6965 H   0  0  0  0  0  0  0  0  0  0  0  0
   16.3017    7.3135   -2.5337 H   0  0  0  0  0  0  0  0  0  0  0  0
   16.3426    5.2295   -1.2132 H   0  0  0  0  0  0  0  0  0  0  0  0
   12.5237    3.8695   -2.1447 H   0  0  0  0  0  0  0  0  0  0  0  0
   10.6944    2.1832   -1.1169 H   0  0  0  0  0  0  0  0  0  0  0  0
   16.0140    0.6649   -0.3225 H   0  0  0  0  0  0  0  0  0  0  0  0
   14.2351   -3.4685    4.3285 H   0  0  0  0  0  0  0  0  0  0  0  0
   14.2954   -5.5704    5.6197 H   0  0  0  0  0  0  0  0  0  0  0  0
   15.5096   -7.5375    4.7349 H   0  0  0  0  0  0  0  0  0  0  0  0
   16.6592   -7.3920    2.5470 H   0  0  0  0  0  0  0  0  0  0  0  0
   16.5860   -5.2945    1.2477 H   0  0  0  0  0  0  0  0  0  0  0  0
   29.5722    0.0936   -0.0802 C   0  0  0  0  0  0  0  0  0  0  0  0
   28.9571    1.1129   -0.7954 C   0  0  0  0  0  0  0  0  0  0  0  0
   29.5981    2.1281   -1.5594 C   0  0  0  0  0  0  0  0  0  0  0  0
   28.6291    2.9435   -2.0729 C   0  0  0  0  0  0  0  0  0  0  0  0
   27.3652    2.4599   -1.6286 C   0  0  0  0  0  0  0  0  0  0  0  0
   27.6134    1.3462   -0.8772 N   0  0  0  0  0  0  0  0  0  0  0  0
   26.1015    3.0033   -1.8826 C   0  0  0  0  0  0  0  0  0  0  0  0
   24.8903    2.4640   -1.4405 C   0  0  0  0  0  0  0  0  0  0  0  0
   23.6068    3.1164   -1.6223 C   0  0  0  0  0  0  0  0  0  0  0  0
   22.6817    2.2923   -1.0883 C   0  0  0  0  0  0  0  0  0  0  0  0
   24.7244    1.2822   -0.7854 N   0  0  0  0  0  0  0  0  0  0  0  0
   23.3977    1.1386   -0.5832 C   0  0  0  0  0  0  0  0  0  0  0  0
   22.7508    0.0272   -0.0039 C   0  0  0  0  0  0  0  0  0  0  0  0
   23.3968   -1.0832    0.5741 C   0  0  0  0  0  0  0  0  0  0  0  0
   22.7732   -2.2393    1.1106 C   0  0  0  0  0  0  0  0  0  0  0  0
   23.7478   -3.0466    1.6283 C   0  0  0  0  0  0  0  0  0  0  0  0
   25.0009   -2.4067    1.4229 C   0  0  0  0  0  0  0  0  0  0  0  0
   26.2616   -2.8792    1.8052 C   0  0  0  0  0  0  0  0  0  0  0  0
   26.2892   -4.1330    2.5965 C   0  0  0  0  0  0  0  0  0  0  0  0
   26.9665   -5.2580    2.1236 C   0  0  0  0  0  0  0  0  0  0  0  0
   26.9903   -6.4272    2.8687 C   0  0  0  0  0  0  0  0  0  0  0  0
   26.3427   -6.4876    4.0952 C   0  0  0  0  0  0  0  0  0  0  0  0
   25.6670   -5.3730    4.5733 C   0  0  0  0  0  0  0  0  0  0  0  0
   25.6371   -4.2034    3.8289 C   0  0  0  0  0  0  0  0  0  0  0  0
   27.4776   -2.2624    1.4948 C   0  0  0  0  0  0  0  0  0  0  0  0
   28.7772   -2.7426    1.9390 C   0  0  0  0  0  0  0  0  0  0  0  0
   29.6950   -1.9143    1.4011 C   0  0  0  0  0  0  0  0  0  0  0  0
   28.9568   -0.9203    0.6424 C   0  0  0  0  0  0  0  0  0  0  0  0
   27.6243   -1.1510    0.7351 N   0  0  0  0  0  0  0  0  0  0  0  0
   24.7391   -1.2339    0.7651 N   0  0  0  0  0  0  0  0  0  0  0  0
   26.0600    4.2516   -2.6833 C   0  0  0  0  0  0  0  0  0  0  0  0
   26.7072    5.4057   -2.2396 C   0  0  0  0  0  0  0  0  0  0  0  0
   26.6658    6.5677   -2.9955 C   0  0  0  0  0  0  0  0  0  0  0  0
   25.9834    6.5908   -4.2043 C   0  0  0  0  0  0  0  0  0  0  0  0
   25.3377    5.4467   -4.6532 C   0  0  0  0  0  0  0  0  0  0  0  0
   25.3726    4.2845   -3.8978 C   0  0  0  0  0  0  0  0  0  0  0  0
   30.6574    0.0985   -0.0920 H   0  0  0  0  0  0  0  0  0  0  0  0
   30.6648    2.2096   -1.6949 H   0  0  0  0  0  0  0  0  0  0  0  0
   28.7714    3.8017   -2.7094 H   0  0  0  0  0  0  0  0  0  0  0  0
   26.8963    0.7765   -0.4410 H   0  0  0  0  0  0  0  0  0  0  0  0
   23.4573    4.0820   -2.0776 H   0  0  0  0  0  0  0  0  0  0  0  0
   21.6170    2.4395   -1.0153 H   0  0  0  0  0  0  0  0  0  0  0  0
   21.7136   -2.4305    1.0886 H   0  0  0  0  0  0  0  0  0  0  0  0
   23.6147   -4.0074    2.0981 H   0  0  0  0  0  0  0  0  0  0  0  0
   27.4605   -5.2181    1.1592 H   0  0  0  0  0  0  0  0  0  0  0  0
   27.5160   -7.2963    2.4890 H   0  0  0  0  0  0  0  0  0  0  0  0
   26.3643   -7.4017    4.6776 H   0  0  0  0  0  0  0  0  0  0  0  0
   25.1618   -5.4134    5.5320 H   0  0  0  0  0  0  0  0  0  0  0  0
   25.1209   -3.3296    4.2112 H   0  0  0  0  0  0  0  0  0  0  0  0
   28.9399   -3.5913    2.5837 H   0  0  0  0  0  0  0  0  0  0  0  0
   30.7692   -1.9420    1.4975 H   0  0  0  0  0  0  0  0  0  0  0  0
   25.4496   -0.5754    0.4638 H   0  0  0  0  0  0  0  0  0  0  0  0
   27.2285    5.3950   -1.2887 H   0  0  0  0  0  0  0  0  0  0  0  0
   27.1681    7.4599   -2.6383 H   0  0  0  0  0  0  0  0  0  0  0  0
   25.9540    7.4994   -4.7949 H   0  0  0  0  0  0  0  0  0  0  0  0
   24.8045    5.4588   -5.5974 H   0  0  0  0  0  0  0  0  0  0  0  0
   24.8776    3.3884   -4.2552 H   0  0  0  0  0  0  0  0  0  0  0  0
   20.1227   -0.0015    0.0147 C   0  0  0  0  0  0  0  0  0  0  0  0
   21.3409    0.0124    0.0026 C   0  0  0  0  0  0  0  0  0  0  0  0
  1  2  4  0  0  0  0
  2  3  4  0  0  0  0
  3  4  2  0  0  0  0
  4  5  4  0  0  0  0
  2  6  4  0  0  0  0
  5  6  4  0  0  0  0
  5  7  4  0  0  0  0
  7  8  4  0  0  0  0
  8  9  1  0  0  0  0
  9 10  2  0  0  0  0
  8 11  4  0  0  0  0
 10 12  1  0  0  0  0
 11 12  4  0  0  0  0
 12 13  4  0  0  0  0
 13 14  4  0  0  0  0
 14 15  4  0  0  0  0
 15 16  2  0  0  0  0
 16 17  4  0  0  0  0
 17 18  4  0  0  0  0
 18 19  1  0  0  0  0
 19 20  4  0  0  0  0
 20 21  4  0  0  0  0
 21 22  4  0  0  0  0
 22 23  4  0  0  0  0
 19 24  4  0  0  0  0
 23 24  4  0  0  0  0
 18 25  4  0  0  0  0
 25 26  1  0  0  0  0
 26 27  2  0  0  0  0
  1 28  4  0  0  0  0
 27 28  1  0  0  0  0
 25 29  4  0  0  0  0
 28 29  4  0  0  0  0
 14 30  4  0  0  0  0
 17 30  4  0  0  0  0
  7 31  1  0  0  0  0
 31 32  4  0  0  0  0
 32 33  4  0  0  0  0
 33 34  4  0  0  0  0
 34 35  4  0  0  0  0
 31 36  4  0  0  0  0
 35 36  4  0  0  0  0
  1 37  1  0  0  0  0
  3 38  1  0  0  0  0
  4 39  1  0  0  0  0
  6 40  1  0  0  0  0
  9 41  1  0  0  0  0
 10 42  1  0  0  0  0
 15 43  1  0  0  0  0
 16 44  1  0  0  0  0
 20 45  1  0  0  0  0
 21 46  1  0  0  0  0
 22 47  1  0  0  0  0
 23 48  1  0  0  0  0
 24 49  1  0  0  0  0
 26 50  1  0  0  0  0
 27 51  1  0  0  0  0
 30 52  1  0  0  0  0
 32 53  1  0  0  0  0
 33 54  1  0  0  0  0
 34 55  1  0  0  0  0
 35 56  1  0  0  0  0
 36 57  1  0  0  0  0
 58 59  4  0  0  0  0
 59 60  4  0  0  0  0
 60 61  2  0  0  0  0
 61 62  4  0  0  0  0
 59 63  4  0  0  0  0
 62 63  4  0  0  0  0
 62 64  4  0  0  0  0
 64 65  4  0  0  0  0
 65 66  1  0  0  0  0
 66 67  2  0  0  0  0
 65 68  4  0  0  0  0
 67 69  1  0  0  0  0
 68 69  4  0  0  0  0
 69 70  4  0  0  0  0
 70 71  4  0  0  0  0
 71 72  4  0  0  0  0
 72 73  2  0  0  0  0
 73 74  4  0  0  0  0
 74 75  4  0  0  0  0
 75 76  1  0  0  0  0
 76 77  4  0  0  0  0
 77 78  4  0  0  0  0
 78 79  4  0  0  0  0
 79 80  4  0  0  0  0
 76 81  4  0  0  0  0
 80 81  4  0  0  0  0
 75 82  4  0  0  0  0
 82 83  1  0  0  0  0
 83 84  2  0  0  0  0
 58 85  4  0  0  0  0
 84 85  1  0  0  0  0
 82 86  4  0  0  0  0
 85 86  4  0  0  0  0
 71 87  4  0  0  0  0
 74 87  4  0  0  0  0
 64 88  1  0  0  0  0
 88 89  4  0  0  0  0
 89 90  4  0  0  0  0
 90 91  4  0  0  0  0
 91 92  4  0  0  0  0
 88 93  4  0  0  0  0
 92 93  4  0  0  0  0
 58 94  1  0  0  0  0
 60 95  1  0  0  0  0
 61 96  1  0  0  0  0
 63 97  1  0  0  0  0
 66 98  1  0  0  0  0
 67 99  1  0  0  0  0
 72100  1  0  0  0  0
 73101  1  0  0  0  0
 77102  1  0  0  0  0
 78103  1  0  0  0  0
 79104  1  0  0  0  0
 80105  1  0  0  0  0
 81106  1  0  0  0  0
 83107  1  0  0  0  0
 84108  1  0  0  0  0
 87109  1  0  0  0  0
 89110  1  0  0  0  0
 90111  1  0  0  0  0
 91112  1  0  0  0  0
 92113  1  0  0  0  0
 93114  1  0  0  0  0
 13115  4  0  0  0  0
 70116  4  0  0  0  0
115116  3  0  0  0  0
M  END
