199

Zn 33.027239 0.008808 -0.062104
C 29.695362 0.098649 0.081845
C 30.350036 -0.232414 1.198625
C 29.690751 -0.632884 2.435691
C 30.625480 -0.860756 3.339632
C 31.935503 -0.603048 2.725658
N 31.767204 -0.213744 1.361885
C 33.124717 -0.699750 3.356053
C 33.166797 -1.072238 4.788760
C 32.684973 -0.189132 5.767594
C 32.741338 -0.538764 7.119738
C 33.290492 -1.768665 7.508014
S 33.352987 -2.216498 9.208956
O 33.392385 -0.977971 10.060608
O 31.989249 -3.122013 9.591899
O 34.591157 -3.027933 9.470839
C 33.772058 -2.651101 6.531568
C 33.714585 -2.303428 5.178913
C 34.420694 -0.439071 2.676165
C 35.702593 -0.316267 3.381033
C 36.642388 -0.123079 2.478064
N 34.569347 -0.321030 1.392347
C 35.967213 -0.117735 1.186133
C 36.566871 -0.007486 -0.010388
C 35.807798 0.003437 -1.280517
C 36.339551 -0.243210 -2.470997
C 35.302324 -0.023422 -3.460302
C 34.206611 0.347988 -2.808157
N 34.436226 0.381529 -1.398703
C 32.934764 0.747074 -3.463762
C 32.966394 1.131000 -4.896155
C 32.273485 0.372553 -5.853558
C 32.325504 0.726258 -7.204923
C 33.071468 1.839772 -7.614258
S 33.152377 2.275910 -9.318235
O 33.310658 3.763862 -9.461437
O 34.455110 1.497525 -10.040440
O 31.882827 1.860873 -10.006733
C 33.777119 2.588220 -6.662625
C 33.725603 2.235904 -5.310961
C 31.770897 0.769978 -2.786125
C 30.470409 1.181116 -3.312485
C 29.603205 0.993017 -2.336485
C 30.341586 0.477113 -1.184952
N 31.605593 0.343020 -1.435512
H 28.611739 0.091822 0.100110
H 28.625748 -0.737756 2.598386
H 30.430573 -1.184435 4.353614
H 32.266590 0.768306 5.481898
H 32.357131 0.149785 7.861307
H 32.093518 -3.348096 10.550896
H 34.190909 -3.607883 6.816507
H 34.093982 -2.993206 4.434845
H 35.868789 -0.369787 4.448945
H 37.696612 0.002102 2.686247
H 37.362804 -0.527632 -2.676617
H 35.413763 -0.118708 -4.532652
H 31.699224 -0.495218 -5.552854
H 31.789108 0.128459 -7.930734
H 35.247188 1.794787 -9.525168
H 34.370027 3.441571 -6.966428
H 34.276496 2.823631 -4.586787
H 30.236904 1.566844 -4.296015
H 28.541399 1.194319 -2.390513
Zn 61.886650 -0.011445 0.043691
C 65.218527 0.125210 -0.056899
C 64.563854 0.230032 -1.216989
C 65.223139 0.314782 -2.514497
C 64.288410 0.436888 -3.438686
C 62.978387 0.449605 -2.772942
N 63.146686 0.307681 -1.361810
C 61.789173 0.592575 -3.394479
C 61.747093 0.775587 -4.863460
C 62.228917 1.957777 -5.446912
C 62.172551 2.132274 -6.832585
C 61.623397 1.132743 -7.647664
S 61.560903 1.344810 -9.393741
O 61.521504 2.810316 -9.727732
O 62.924640 0.644759 -10.084054
O 60.322732 0.687474 -9.936806
C 61.141832 -0.047943 -7.066183
C 61.199304 -0.224448 -5.680759
C 60.493195 0.583709 -2.666384
C 59.211297 0.958168 -3.276056
C 58.271502 0.804190 -2.365580
N 60.344542 0.219232 -1.429744
C 58.946677 0.331988 -1.163025
C 58.347018 -0.007486 -0.010388
C 59.106091 -0.466451 1.173969
C 58.574338 -1.135355 2.189175
C 59.611565 -1.296502 3.189706
C 60.707279 -0.710487 2.720851
N 60.477664 -0.158744 1.423444
C 61.979125 -0.581764 3.477500
C 61.947495 -0.754031 4.950414
C 62.640404 -1.812461 5.559992
C 62.588386 -1.982885 6.946445
C 61.842422 -1.099291 7.738108
S 61.761512 -1.323345 9.482685
O 61.603231 0.006507 10.165329
O 60.458780 -2.313435 9.866333
O 63.031062 -1.963328 9.969210
C 61.136771 -0.052283 7.130197
C 61.188286 0.119542 5.743980
C 63.142993 -0.310198 2.856236
C 64.443480 -0.122539 3.497230
C 65.310685 0.063142 2.520768
C 64.572304 0.009029 1.260111
N 63.308297 -0.208126 1.443428
H 66.302150 0.125612 -0.076393
H 66.288142 0.277416 -2.704423
H 64.483317 0.510604 -4.500521
H 62.647300 2.741997 -4.827793
H 62.556758 3.046031 -7.267407
H 62.820371 0.788862 -11.058746
H 60.722980 -0.831832 -7.684357
H 60.819907 -1.140271 -5.244068
H 59.045101 1.302860 -4.288225
H 57.217278 0.997411 -2.512808
H 57.551085 -1.475612 2.275207
H 59.500126 -1.781117 4.151040
H 63.214665 -2.507811 4.960044
H 63.124782 -2.806490 7.400142
H 59.666702 -1.846879 9.497287
H 60.543863 0.628522 7.727699
H 60.637393 0.933182 5.288084
H 64.676985 -0.127346 4.553684
H 66.372490 0.230256 2.645326
C 40.015722 0.004950 -0.007946
C 38.763452 -0.014231 -0.012294
C 41.329390 0.004184 -0.006013
C 42.832524 -0.014231 -0.012294
C 53.423642 0.004950 -0.007946
C 52.171372 -0.014231 -0.012294
C 54.737310 0.004184 -0.006013
C 56.240444 -0.014231 -0.012294
Zn 47.429247 -0.025828 -0.027692
C 44.047761 0.017018 0.022666
C 44.703198 1.014421 0.644812
C 44.062235 2.077196 1.421958
C 44.999079 2.898701 1.852012
C 46.296719 2.414075 1.370362
N 46.118611 1.214935 0.612244
C 47.481682 3.019098 1.600539
C 47.518268 4.291226 2.358837
C 48.097886 4.332154 3.635835
C 48.143768 5.532851 4.349960
C 47.619051 6.706118 3.791539
S 47.660856 8.213738 4.700265
O 47.708531 9.383756 3.757558
O 46.293396 8.326999 5.670976
O 48.888700 8.245649 5.566369
C 47.039031 6.666998 2.516219
C 46.993241 5.467156 1.800643
C 48.778490 2.465235 1.134524
C 50.046975 3.204046 1.181017
C 50.998829 2.398712 0.755134
N 48.945951 1.257583 0.692987
C 50.343943 1.138317 0.428994
C 50.959312 0.017018 0.022666
C 50.208931 -1.212160 -0.308747
C 50.740800 -2.426616 -0.359586
C 49.708460 -3.327178 -0.836753
C 48.617919 -2.599220 -1.048392
N 48.844016 -1.228858 -0.724022
C 47.363701 -3.118643 -1.643341
C 47.424888 -4.363828 -2.446461
C 48.197434 -4.407396 -3.617004
C 48.266253 -5.581255 -4.372917
C 47.573331 -6.727865 -3.959843
S 47.640496 -8.208476 -4.910834
O 47.854165 -9.386926 -4.002148
O 46.202814 -8.399126 -5.760953
O 48.781897 -8.141420 -5.886695
C 46.807097 -6.688408 -2.787602
C 46.735777 -5.514698 -2.031976
C 46.191879 -2.473654 -1.485946
C 44.915564 -2.854811 -2.082010
C 44.027547 -1.994809 -1.626561
C 44.725711 -1.055248 -0.742140
N 45.990833 -1.328016 -0.658098
H 43.007290 2.193947 1.630635
H 44.812547 3.772183 2.462991
H 48.509298 3.433158 4.078223
H 48.585648 5.545984 5.338159
H 45.529042 8.257646 5.043992
H 46.621133 7.563260 2.076216
H 46.547889 5.452232 0.813512
H 50.196539 4.225513 1.505812
H 52.048040 2.651217 0.677788
H 51.761557 -2.696206 -0.123453
H 49.821074 -4.387382 -1.022652
H 48.739060 -3.529465 -3.947622
H 48.857979 -5.592035 -5.279029
H 45.502375 -8.475092 -5.064716
H 46.265196 -7.566356 -2.459396
H 46.145501 -5.501443 -1.123930
H 44.711270 -3.667260 -2.766983
H 42.976517 -1.997720 -1.881964
