 xtb: 6.5.1 (b24c23e)
          07302200263D

185214  0     0  0            999 V2000
   31.2386    0.0277    0.0383 Fe  0  0  0  0  0  0  0  0  0  0  0  0
   27.8524    0.0417    0.1560 C   0  0  0  0  0  0  0  0  0  0  0  0
   28.5040    1.2566    0.2091 C   0  0  0  0  0  0  0  0  0  0  0  0
   27.8301    2.5178    0.2810 C   0  0  0  0  0  0  0  0  0  0  0  0
   28.7897    3.4631    0.4170 C   0  0  0  0  0  0  0  0  0  0  0  0
   30.0484    2.7752    0.4431 C   0  0  0  0  0  0  0  0  0  0  0  0
   29.8619    1.4306    0.2715 N   0  0  0  0  0  0  0  0  0  0  0  0
   31.2716    3.3973    0.6713 C   0  0  0  0  0  0  0  0  0  0  0  0
   31.2849    4.8531    0.9448 C   0  0  0  0  0  0  0  0  0  0  0  0
   30.6255    5.3698    2.0624 C   0  0  0  0  0  0  0  0  0  0  0  0
   30.6361    6.7289    2.3201 C   0  0  0  0  0  0  0  0  0  0  0  0
   31.3042    7.6009    1.4553 C   0  0  0  0  0  0  0  0  0  0  0  0
   31.3108    9.0009    1.7138 C   0  0  0  0  0  0  0  0  0  0  0  0
   31.3166   10.1325    1.9223 N   0  0  0  0  0  0  0  0  0  0  0  0
   31.9644    7.0885    0.3346 C   0  0  0  0  0  0  0  0  0  0  0  0
   31.9562    5.7274    0.0872 C   0  0  0  0  0  0  0  0  0  0  0  0
   32.4785    2.7124    0.6628 C   0  0  0  0  0  0  0  0  0  0  0  0
   33.7435    3.3139    0.9646 C   0  0  0  0  0  0  0  0  0  0  0  0
   34.6854    2.3588    0.7742 C   0  0  0  0  0  0  0  0  0  0  0  0
   32.6470    1.3892    0.3312 N   0  0  0  0  0  0  0  0  0  0  0  0
   33.9932    1.1778    0.3624 C   0  0  0  0  0  0  0  0  0  0  0  0
   34.6468    0.0040   -0.0339 C   0  0  0  0  0  0  0  0  0  0  0  0
   33.9615   -1.1549   -0.4209 C   0  0  0  0  0  0  0  0  0  0  0  0
   34.6194   -2.3367   -0.8830 C   0  0  0  0  0  0  0  0  0  0  0  0
   33.6551   -3.2702   -1.0682 C   0  0  0  0  0  0  0  0  0  0  0  0
   32.4120   -2.6577   -0.7039 C   0  0  0  0  0  0  0  0  0  0  0  0
   32.6138   -1.3445   -0.3505 N   0  0  0  0  0  0  0  0  0  0  0  0
   31.1977   -3.3283   -0.6629 C   0  0  0  0  0  0  0  0  0  0  0  0
   31.1750   -4.7776   -0.9674 C   0  0  0  0  0  0  0  0  0  0  0  0
   30.4339   -5.2617   -2.0479 C   0  0  0  0  0  0  0  0  0  0  0  0
   30.4072   -6.6149   -2.3336 C   0  0  0  0  0  0  0  0  0  0  0  0
   31.1194   -7.5141   -1.5342 C   0  0  0  0  0  0  0  0  0  0  0  0
   31.0870   -8.9081   -1.8211 C   0  0  0  0  0  0  0  0  0  0  0  0
   31.0584  -10.0348   -2.0537 N   0  0  0  0  0  0  0  0  0  0  0  0
   31.8611   -7.0346   -0.4506 C   0  0  0  0  0  0  0  0  0  0  0  0
   31.8893   -5.6792   -0.1751 C   0  0  0  0  0  0  0  0  0  0  0  0
   29.9987   -2.7003   -0.3405 C   0  0  0  0  0  0  0  0  0  0  0  0
   28.7403   -3.3803   -0.2295 C   0  0  0  0  0  0  0  0  0  0  0  0
   27.8024   -2.4323    0.0039 C   0  0  0  0  0  0  0  0  0  0  0  0
   28.4896   -1.1768    0.0438 C   0  0  0  0  0  0  0  0  0  0  0  0
   29.8368   -1.3581   -0.1312 N   0  0  0  0  0  0  0  0  0  0  0  0
   26.7691    0.0451    0.1995 H   0  0  0  0  0  0  0  0  0  0  0  0
   26.7603    2.6435    0.2311 H   0  0  0  0  0  0  0  0  0  0  0  0
   28.6690    4.5316    0.4914 H   0  0  0  0  0  0  0  0  0  0  0  0
   30.1154    4.6952    2.7406 H   0  0  0  0  0  0  0  0  0  0  0  0
   30.1276    7.1223    3.1925 H   0  0  0  0  0  0  0  0  0  0  0  0
   32.4807    7.7621   -0.3393 H   0  0  0  0  0  0  0  0  0  0  0  0
   32.4601    5.3341   -0.7885 H   0  0  0  0  0  0  0  0  0  0  0  0
   33.8819    4.3330    1.2868 H   0  0  0  0  0  0  0  0  0  0  0  0
   35.7540    2.4331    0.8949 H   0  0  0  0  0  0  0  0  0  0  0  0
   35.6820   -2.4249   -1.0421 H   0  0  0  0  0  0  0  0  0  0  0  0
   33.7653   -4.2822   -1.4224 H   0  0  0  0  0  0  0  0  0  0  0  0
   29.8883   -4.5661   -2.6755 H   0  0  0  0  0  0  0  0  0  0  0  0
   29.8347   -6.9829   -3.1769 H   0  0  0  0  0  0  0  0  0  0  0  0
   32.4116   -7.7292    0.1731 H   0  0  0  0  0  0  0  0  0  0  0  0
   32.4554   -5.3119    0.6734 H   0  0  0  0  0  0  0  0  0  0  0  0
   28.6056   -4.4463   -0.3152 H   0  0  0  0  0  0  0  0  0  0  0  0
   26.7391   -2.5522    0.1374 H   0  0  0  0  0  0  0  0  0  0  0  0
   63.2189    0.0111    0.0771 Fe  0  0  0  0  0  0  0  0  0  0  0  0
   66.6083   -0.0050    0.1707 C   0  0  0  0  0  0  0  0  0  0  0  0
   65.9555   -1.2128    0.3037 C   0  0  0  0  0  0  0  0  0  0  0  0
   66.6308   -2.4655    0.4604 C   0  0  0  0  0  0  0  0  0  0  0  0
   65.6715   -3.4039    0.6371 C   0  0  0  0  0  0  0  0  0  0  0  0
   64.4110   -2.7195    0.6030 C   0  0  0  0  0  0  0  0  0  0  0  0
   64.5970   -1.3859    0.3576 N   0  0  0  0  0  0  0  0  0  0  0  0
   63.1862   -3.3356    0.8334 C   0  0  0  0  0  0  0  0  0  0  0  0
   63.1720   -4.7773    1.1754 C   0  0  0  0  0  0  0  0  0  0  0  0
   63.7991   -5.2344    2.3366 C   0  0  0  0  0  0  0  0  0  0  0  0
   63.7845   -6.5788    2.6621 C   0  0  0  0  0  0  0  0  0  0  0  0
   63.1447   -7.4958    1.8229 C   0  0  0  0  0  0  0  0  0  0  0  0
   63.1316   -8.8807    2.1527 C   0  0  0  0  0  0  0  0  0  0  0  0
   63.1219   -9.9996    2.4211 N   0  0  0  0  0  0  0  0  0  0  0  0
   62.5181   -7.0433    0.6579 C   0  0  0  0  0  0  0  0  0  0  0  0
   62.5303   -5.6964    0.3424 C   0  0  0  0  0  0  0  0  0  0  0  0
   61.9771   -2.6570    0.7722 C   0  0  0  0  0  0  0  0  0  0  0  0
   60.7102   -3.2542    1.0743 C   0  0  0  0  0  0  0  0  0  0  0  0
   59.7684   -2.3070    0.8499 C   0  0  0  0  0  0  0  0  0  0  0  0
   61.8095   -1.3456    0.3973 N   0  0  0  0  0  0  0  0  0  0  0  0
   60.4619   -1.1344    0.4170 C   0  0  0  0  0  0  0  0  0  0  0  0
   59.8086    0.0359    0.0155 C   0  0  0  0  0  0  0  0  0  0  0  0
   60.4907    1.1876   -0.3919 C   0  0  0  0  0  0  0  0  0  0  0  0
   59.8276    2.3611   -0.8678 C   0  0  0  0  0  0  0  0  0  0  0  0
   60.7927    3.2783   -1.1164 C   0  0  0  0  0  0  0  0  0  0  0  0
   62.0423    2.6665   -0.7733 C   0  0  0  0  0  0  0  0  0  0  0  0
   61.8424    1.3680   -0.3688 N   0  0  0  0  0  0  0  0  0  0  0  0
   63.2626    3.3266   -0.8063 C   0  0  0  0  0  0  0  0  0  0  0  0
   63.2870    4.7573   -1.1901 C   0  0  0  0  0  0  0  0  0  0  0  0
   63.9883    5.1709   -2.3250 C   0  0  0  0  0  0  0  0  0  0  0  0
   64.0136    6.5049   -2.6899 C   0  0  0  0  0  0  0  0  0  0  0  0
   63.3398    7.4555   -1.9172 C   0  0  0  0  0  0  0  0  0  0  0  0
   63.3686    8.8300   -2.2869 C   0  0  0  0  0  0  0  0  0  0  0  0
   63.3966    9.9408   -2.5858 N   0  0  0  0  0  0  0  0  0  0  0  0
   62.6397    7.0469   -0.7782 C   0  0  0  0  0  0  0  0  0  0  0  0
   62.6132    5.7102   -0.4230 C   0  0  0  0  0  0  0  0  0  0  0  0
   64.4655    2.7072   -0.4851 C   0  0  0  0  0  0  0  0  0  0  0  0
   65.7287    3.3857   -0.4390 C   0  0  0  0  0  0  0  0  0  0  0  0
   66.6654    2.4502   -0.1566 C   0  0  0  0  0  0  0  0  0  0  0  0
   65.9733    1.2037   -0.0249 C   0  0  0  0  0  0  0  0  0  0  0  0
   64.6250    1.3787   -0.1988 N   0  0  0  0  0  0  0  0  0  0  0  0
   67.6915   -0.0070    0.2150 H   0  0  0  0  0  0  0  0  0  0  0  0
   67.7016   -2.5905    0.4338 H   0  0  0  0  0  0  0  0  0  0  0  0
   65.7931   -4.4659    0.7758 H   0  0  0  0  0  0  0  0  0  0  0  0
   64.2867   -4.5242    2.9949 H   0  0  0  0  0  0  0  0  0  0  0  0
   64.2675   -6.9257    3.5681 H   0  0  0  0  0  0  0  0  0  0  0  0
   62.0241   -7.7521    0.0037 H   0  0  0  0  0  0  0  0  0  0  0  0
   62.0519   -5.3497   -0.5666 H   0  0  0  0  0  0  0  0  0  0  0  0
   60.5707   -4.2649    1.4218 H   0  0  0  0  0  0  0  0  0  0  0  0
   58.6988   -2.3803    0.9629 H   0  0  0  0  0  0  0  0  0  0  0  0
   58.7611    2.4539   -0.9950 H   0  0  0  0  0  0  0  0  0  0  0  0
   60.6788    4.2791   -1.4999 H   0  0  0  0  0  0  0  0  0  0  0  0
   64.5035    4.4347   -2.9317 H   0  0  0  0  0  0  0  0  0  0  0  0
   64.5545    6.8180   -3.5753 H   0  0  0  0  0  0  0  0  0  0  0  0
   62.1197    7.7817   -0.1748 H   0  0  0  0  0  0  0  0  0  0  0  0
   62.0793    5.3983    0.4676 H   0  0  0  0  0  0  0  0  0  0  0  0
   65.8666    4.4432   -0.5961 H   0  0  0  0  0  0  0  0  0  0  0  0
   67.7309    2.5729   -0.0449 H   0  0  0  0  0  0  0  0  0  0  0  0
   39.8436   -0.0155   -0.0689 C   0  0  0  0  0  0  0  0  0  0  0  0
   38.6128   -0.0166   -0.0639 C   0  0  0  0  0  0  0  0  0  0  0  0
   37.2725   -0.0130   -0.0581 C   0  0  0  0  0  0  0  0  0  0  0  0
   36.0464   -0.0083   -0.0495 C   0  0  0  0  0  0  0  0  0  0  0  0
   41.1837   -0.0109   -0.0674 C   0  0  0  0  0  0  0  0  0  0  0  0
   42.4100   -0.0045   -0.0646 C   0  0  0  0  0  0  0  0  0  0  0  0
   55.8385    0.0619    0.0029 C   0  0  0  0  0  0  0  0  0  0  0  0
   54.6088    0.0611   -0.0017 C   0  0  0  0  0  0  0  0  0  0  0  0
   53.2665    0.0555   -0.0055 C   0  0  0  0  0  0  0  0  0  0  0  0
   52.0413    0.0475   -0.0110 C   0  0  0  0  0  0  0  0  0  0  0  0
   57.1810    0.0581    0.0089 C   0  0  0  0  0  0  0  0  0  0  0  0
   58.4060    0.0507    0.0121 C   0  0  0  0  0  0  0  0  0  0  0  0
   47.2246    0.0215   -0.0391 Fe  0  0  0  0  0  0  0  0  0  0  0  0
   43.8088    0.0031   -0.0582 C   0  0  0  0  0  0  0  0  0  0  0  0
   44.4881   -1.1884   -0.3460 C   0  0  0  0  0  0  0  0  0  0  0  0
   43.8231   -2.4245   -0.6133 C   0  0  0  0  0  0  0  0  0  0  0  0
   44.7845   -3.3136   -0.9627 C   0  0  0  0  0  0  0  0  0  0  0  0
   46.0317   -2.6111   -0.9153 C   0  0  0  0  0  0  0  0  0  0  0  0
   45.8364   -1.3184   -0.4940 N   0  0  0  0  0  0  0  0  0  0  0  0
   47.2477   -3.1595   -1.3027 C   0  0  0  0  0  0  0  0  0  0  0  0
   47.2559   -4.5335   -1.8561 C   0  0  0  0  0  0  0  0  0  0  0  0
   46.5610   -4.8245   -3.0322 C   0  0  0  0  0  0  0  0  0  0  0  0
   46.5683   -6.1050   -3.5554 C   0  0  0  0  0  0  0  0  0  0  0  0
   47.2677   -7.1245   -2.9027 C   0  0  0  0  0  0  0  0  0  0  0  0
   47.2734   -8.4447   -3.4358 C   0  0  0  0  0  0  0  0  0  0  0  0
   47.2775   -9.5114   -3.8671 N   0  0  0  0  0  0  0  0  0  0  0  0
   47.9611   -6.8387   -1.7229 C   0  0  0  0  0  0  0  0  0  0  0  0
   47.9567   -5.5540   -1.2098 C   0  0  0  0  0  0  0  0  0  0  0  0
   48.4558   -2.4807   -1.1966 C   0  0  0  0  0  0  0  0  0  0  0  0
   49.7127   -3.0106   -1.6328 C   0  0  0  0  0  0  0  0  0  0  0  0
   50.6615   -2.1152   -1.2656 C   0  0  0  0  0  0  0  0  0  0  0  0
   48.6321   -1.2507   -0.6125 N   0  0  0  0  0  0  0  0  0  0  0  0
   49.9790   -1.0395   -0.6185 C   0  0  0  0  0  0  0  0  0  0  0  0
   50.6400    0.0391   -0.0178 C   0  0  0  0  0  0  0  0  0  0  0  0
   49.9602    1.1098    0.5760 C   0  0  0  0  0  0  0  0  0  0  0  0
   50.6232    2.1912    1.2337 C   0  0  0  0  0  0  0  0  0  0  0  0
   49.6607    3.0764    1.5897 C   0  0  0  0  0  0  0  0  0  0  0  0
   48.4151    2.5351    1.1352 C   0  0  0  0  0  0  0  0  0  0  0  0
   48.6113    1.3073    0.5529 N   0  0  0  0  0  0  0  0  0  0  0  0
   47.1993    3.2030    1.2232 C   0  0  0  0  0  0  0  0  0  0  0  0
   47.1889    4.5780    1.7734 C   0  0  0  0  0  0  0  0  0  0  0  0
   46.4683    4.8696    2.9338 C   0  0  0  0  0  0  0  0  0  0  0  0
   46.4627    6.1507    3.4556 C   0  0  0  0  0  0  0  0  0  0  0  0
   47.1754    7.1703    2.8177 C   0  0  0  0  0  0  0  0  0  0  0  0
   47.1707    8.4904    3.3507 C   0  0  0  0  0  0  0  0  0  0  0  0
   47.1703    9.5566    3.7835 N   0  0  0  0  0  0  0  0  0  0  0  0
   47.8934    6.8844    1.6527 C   0  0  0  0  0  0  0  0  0  0  0  0
   47.9011    5.5994    1.1406 C   0  0  0  0  0  0  0  0  0  0  0  0
   45.9940    2.6422    0.8204 C   0  0  0  0  0  0  0  0  0  0  0  0
   44.7391    3.3319    0.8501 C   0  0  0  0  0  0  0  0  0  0  0  0
   43.7912    2.4318    0.4922 C   0  0  0  0  0  0  0  0  0  0  0  0
   44.4722    1.2020    0.2359 C   0  0  0  0  0  0  0  0  0  0  0  0
   45.8171    1.3466    0.3998 N   0  0  0  0  0  0  0  0  0  0  0  0
   42.7584   -2.5772   -0.5408 H   0  0  0  0  0  0  0  0  0  0  0  0
   44.6693   -4.3525   -1.2251 H   0  0  0  0  0  0  0  0  0  0  0  0
   46.0260   -4.0337   -3.5456 H   0  0  0  0  0  0  0  0  0  0  0  0
   46.0329   -6.3224   -4.4722 H   0  0  0  0  0  0  0  0  0  0  0  0
   48.5008   -7.6276   -1.2124 H   0  0  0  0  0  0  0  0  0  0  0  0
   48.4867   -5.3377   -0.2891 H   0  0  0  0  0  0  0  0  0  0  0  0
   49.8428   -3.9444   -2.1550 H   0  0  0  0  0  0  0  0  0  0  0  0
   51.7282   -2.1651   -1.4131 H   0  0  0  0  0  0  0  0  0  0  0  0
   51.6872    2.2514    1.3959 H   0  0  0  0  0  0  0  0  0  0  0  0
   49.7747    4.0099    2.1160 H   0  0  0  0  0  0  0  0  0  0  0  0
   45.9239    4.0786    3.4371 H   0  0  0  0  0  0  0  0  0  0  0  0
   45.9075    6.3682    4.3605 H   0  0  0  0  0  0  0  0  0  0  0  0
   48.4432    7.6735    1.1532 H   0  0  0  0  0  0  0  0  0  0  0  0
   48.4504    5.3832    0.2313 H   0  0  0  0  0  0  0  0  0  0  0  0
   44.6098    4.3704    1.1075 H   0  0  0  0  0  0  0  0  0  0  0  0
   42.7260    2.5732    0.4065 H   0  0  0  0  0  0  0  0  0  0  0  0
  2  3  4  0  0  0  0
  3  4  4  0  0  0  0
  4  5  2  0  0  0  0
  5  6  4  0  0  0  0
  1  7  1  0  0  0  0
  3  7  4  0  0  0  0
  6  7  4  0  0  0  0
  6  8  4  0  0  0  0
  8  9  1  0  0  0  0
  9 10  4  0  0  0  0
 10 11  4  0  0  0  0
 11 12  4  0  0  0  0
 12 13  1  0  0  0  0
 13 14  3  0  0  0  0
 12 15  4  0  0  0  0
  9 16  4  0  0  0  0
 15 16  4  0  0  0  0
  8 17  4  0  0  0  0
 17 18  4  0  0  0  0
 18 19  2  0  0  0  0
  1 20  1  0  0  0  0
 17 20  4  0  0  0  0
 19 21  4  0  0  0  0
 20 21  4  0  0  0  0
 21 22  4  0  0  0  0
 22 23  4  0  0  0  0
 23 24  4  0  0  0  0
 24 25  2  0  0  0  0
 25 26  4  0  0  0  0
  1 27  1  0  0  0  0
 23 27  4  0  0  0  0
 26 27  4  0  0  0  0
 26 28  4  0  0  0  0
 28 29  1  0  0  0  0
 29 30  4  0  0  0  0
 30 31  4  0  0  0  0
 31 32  4  0  0  0  0
 32 33  1  0  0  0  0
 33 34  3  0  0  0  0
 32 35  4  0  0  0  0
 29 36  4  0  0  0  0
 35 36  4  0  0  0  0
 28 37  4  0  0  0  0
 37 38  4  0  0  0  0
 38 39  2  0  0  0  0
  2 40  4  0  0  0  0
 39 40  4  0  0  0  0
  1 41  1  0  0  0  0
 37 41  4  0  0  0  0
 40 41  4  0  0  0  0
  2 42  1  0  0  0  0
  4 43  1  0  0  0  0
  5 44  1  0  0  0  0
 10 45  1  0  0  0  0
 11 46  1  0  0  0  0
 15 47  1  0  0  0  0
 16 48  1  0  0  0  0
 18 49  1  0  0  0  0
 19 50  1  0  0  0  0
 24 51  1  0  0  0  0
 25 52  1  0  0  0  0
 30 53  1  0  0  0  0
 31 54  1  0  0  0  0
 35 55  1  0  0  0  0
 36 56  1  0  0  0  0
 38 57  1  0  0  0  0
 39 58  1  0  0  0  0
 60 61  4  0  0  0  0
 61 62  4  0  0  0  0
 62 63  2  0  0  0  0
 63 64  4  0  0  0  0
 59 65  1  0  0  0  0
 61 65  4  0  0  0  0
 64 65  4  0  0  0  0
 64 66  4  0  0  0  0
 66 67  1  0  0  0  0
 67 68  4  0  0  0  0
 68 69  4  0  0  0  0
 69 70  4  0  0  0  0
 70 71  1  0  0  0  0
 71 72  3  0  0  0  0
 70 73  4  0  0  0  0
 67 74  4  0  0  0  0
 73 74  4  0  0  0  0
 66 75  4  0  0  0  0
 75 76  4  0  0  0  0
 76 77  2  0  0  0  0
 59 78  1  0  0  0  0
 75 78  4  0  0  0  0
 77 79  4  0  0  0  0
 78 79  4  0  0  0  0
 79 80  4  0  0  0  0
 80 81  4  0  0  0  0
 81 82  4  0  0  0  0
 82 83  2  0  0  0  0
 83 84  4  0  0  0  0
 59 85  1  0  0  0  0
 81 85  4  0  0  0  0
 84 85  4  0  0  0  0
 84 86  4  0  0  0  0
 86 87  1  0  0  0  0
 87 88  4  0  0  0  0
 88 89  4  0  0  0  0
 89 90  4  0  0  0  0
 90 91  1  0  0  0  0
 91 92  3  0  0  0  0
 90 93  4  0  0  0  0
 87 94  4  0  0  0  0
 93 94  4  0  0  0  0
 86 95  4  0  0  0  0
 95 96  4  0  0  0  0
 96 97  2  0  0  0  0
 60 98  4  0  0  0  0
 97 98  4  0  0  0  0
 59 99  1  0  0  0  0
 95 99  4  0  0  0  0
 98 99  4  0  0  0  0
 60100  1  0  0  0  0
 62101  1  0  0  0  0
 63102  1  0  0  0  0
 68103  1  0  0  0  0
 69104  1  0  0  0  0
 73105  1  0  0  0  0
 74106  1  0  0  0  0
 76107  1  0  0  0  0
 77108  1  0  0  0  0
 82109  1  0  0  0  0
 83110  1  0  0  0  0
 88111  1  0  0  0  0
 89112  1  0  0  0  0
 93113  1  0  0  0  0
 94114  1  0  0  0  0
 96115  1  0  0  0  0
 97116  1  0  0  0  0
117118  3  0  0  0  0
118119  4  0  0  0  0
 22120  4  0  0  0  0
119120  3  0  0  0  0
117121  4  0  0  0  0
121122  3  0  0  0  0
123124  3  0  0  0  0
124125  4  0  0  0  0
125126  3  0  0  0  0
123127  4  0  0  0  0
 80128  4  0  0  0  0
127128  3  0  0  0  0
122130  4  0  0  0  0
130131  4  0  0  0  0
131132  4  0  0  0  0
132133  2  0  0  0  0
133134  4  0  0  0  0
129135  1  0  0  0  0
131135  4  0  0  0  0
134135  4  0  0  0  0
134136  4  0  0  0  0
136137  1  0  0  0  0
137138  4  0  0  0  0
138139  4  0  0  0  0
139140  4  0  0  0  0
140141  1  0  0  0  0
141142  3  0  0  0  0
140143  4  0  0  0  0
137144  4  0  0  0  0
143144  4  0  0  0  0
136145  4  0  0  0  0
145146  4  0  0  0  0
146147  2  0  0  0  0
129148  1  0  0  0  0
145148  4  0  0  0  0
147149  4  0  0  0  0
148149  4  0  0  0  0
126150  4  0  0  0  0
149150  4  0  0  0  0
150151  4  0  0  0  0
151152  4  0  0  0  0
152153  2  0  0  0  0
153154  4  0  0  0  0
129155  1  0  0  0  0
151155  4  0  0  0  0
154155  4  0  0  0  0
154156  4  0  0  0  0
156157  1  0  0  0  0
157158  4  0  0  0  0
158159  4  0  0  0  0
159160  4  0  0  0  0
160161  1  0  0  0  0
161162  3  0  0  0  0
160163  4  0  0  0  0
157164  4  0  0  0  0
163164  4  0  0  0  0
156165  4  0  0  0  0
165166  4  0  0  0  0
166167  2  0  0  0  0
130168  4  0  0  0  0
167168  4  0  0  0  0
129169  1  0  0  0  0
165169  4  0  0  0  0
168169  4  0  0  0  0
132170  1  0  0  0  0
133171  1  0  0  0  0
138172  1  0  0  0  0
139173  1  0  0  0  0
143174  1  0  0  0  0
144175  1  0  0  0  0
146176  1  0  0  0  0
147177  1  0  0  0  0
152178  1  0  0  0  0
153179  1  0  0  0  0
158180  1  0  0  0  0
159181  1  0  0  0  0
163182  1  0  0  0  0
164183  1  0  0  0  0
166184  1  0  0  0  0
167185  1  0  0  0  0
M  END
