384

C 90.436410 0.038025 0.102489
C 91.166807 -1.339568 0.073274
C 90.561521 -2.572172 0.163568
C 91.584487 -3.547952 0.040063
C 92.780311 -2.876403 -0.126214
N 92.519367 -1.530877 -0.051011
C 94.202374 -3.526305 -0.386018
C 95.331385 -2.769242 -0.337633
C 96.635333 -3.320941 -0.644006
C 97.535492 -2.350098 -0.544085
N 95.526133 -1.445232 -0.045313
C 96.856062 -1.130878 -0.152305
C 97.522332 0.038819 0.039521
C 96.745008 1.343177 0.500943
C 97.287141 2.417561 1.178316
C 96.261556 3.381874 1.341761
C 95.118847 2.864600 0.770366
C 93.707537 3.581501 0.681189
C 93.670925 5.056183 0.787202
C 93.980685 5.850213 -0.322832
C 93.954232 7.243479 -0.221714
C 93.618868 7.851571 0.994991
C 93.600998 9.332717 1.059434
O 93.273681 9.803673 2.277945
O 93.846377 10.101029 0.146703
C 93.310839 7.059778 2.108962
C 93.338497 5.667335 2.002626
C 92.583155 2.840520 0.503289
C 91.260097 3.430288 0.400106
C 90.376163 2.448705 0.246466
C 91.099778 1.201322 0.239560
N 92.420783 1.488720 0.383881
N 95.409986 1.602910 0.307460
C 94.240500 -4.965609 -0.733552
C 93.973697 -5.379201 -2.043931
C 93.992199 -6.736845 -2.373539
C 94.281388 -7.690960 -1.388910
C 94.312752 -9.142342 -1.689873
O 94.046111 -9.420226 -2.979827
O 94.547407 -10.040274 -0.900687
C 94.550171 -7.280263 -0.076868
C 94.526673 -5.921910 0.247987
H 89.358366 0.043297 -0.003925
H 89.504133 -2.749142 0.286202
H 91.457894 -4.620317 0.046170
H 93.218946 -0.793495 -0.086994
H 96.849056 -4.337635 -0.920944
H 98.588077 -2.472655 -0.723154
H 98.310443 2.506568 1.509635
H 96.349020 4.345568 1.819657
H 94.238351 5.368496 -1.263933
H 94.194647 7.843793 -1.095329
H 93.304465 10.773531 2.157213
H 93.046028 7.507896 3.061617
H 93.097988 5.041301 2.859831
H 91.028340 4.478961 0.438754
H 89.312277 2.558312 0.140480
H 94.726017 0.949374 -0.064824
H 93.753494 -4.628832 -2.800376
H 93.780208 -7.030767 -3.397264
H 94.105297 -10.395955 -3.014002
H 94.779448 -8.007716 0.697723
H 94.733358 -5.591694 1.263471
C 155.151825 0.011296 0.096161
C 154.421428 1.255760 0.687705
C 155.026714 2.317043 1.321065
C 154.003748 3.244622 1.648170
C 152.807924 2.718907 1.198447
N 153.068867 1.482487 0.662387
C 151.385861 3.416310 1.257611
C 150.256849 2.717913 0.961423
C 148.952902 3.348416 0.934931
C 148.052742 2.435825 0.588958
N 150.062102 1.403378 0.629081
C 148.732173 1.170363 0.392502
C 148.065902 0.038819 0.039521
C 148.843227 -1.333969 -0.132858
C 148.301093 -2.598017 -0.009097
C 149.326679 -3.533254 -0.295360
C 150.469387 -2.814696 -0.574179
C 151.880697 -3.415517 -0.975320
C 151.917310 -4.781198 -1.541748
C 151.607550 -4.993249 -2.889967
C 151.634003 -6.283961 -3.424267
C 151.969367 -7.373028 -2.609356
C 151.987237 -8.725849 -3.215840
O 152.314554 -9.693146 -2.337828
O 151.741858 -9.003374 -4.376168
C 152.277396 -7.164742 -1.258621
C 152.249738 -5.872426 -0.729354
C 153.005079 -2.673426 -0.802110
C 154.328138 -3.154328 -1.158768
C 155.212072 -2.208051 -0.855998
C 154.488456 -1.089978 -0.302894
N 153.167451 -1.411577 -0.302750
N 150.178249 -1.479382 -0.422257
C 151.347734 4.858657 1.592293
C 151.614538 5.815869 0.606445
C 151.596036 7.177186 0.920537
C 151.306847 7.588556 2.228439
C 151.275482 9.020818 2.610163
O 151.542124 9.847569 1.581726
O 151.040828 9.469598 3.718177
C 151.038063 6.633187 3.217071
C 151.061562 5.273366 2.898412
H 156.229869 0.054295 -0.001321
H 156.084101 2.420244 1.510028
H 154.130341 4.200420 2.134435
H 152.369288 0.839509 0.299611
H 148.739178 4.381359 1.143234
H 147.000157 2.625660 0.483847
H 147.277792 -2.826127 0.247147
H 149.239215 -4.608924 -0.300273
H 151.349884 -4.140712 -3.515190
H 151.393588 -6.428860 -4.474307
H 152.283770 -10.505924 -2.880591
H 152.542207 -7.992425 -0.608006
H 152.490246 -5.697179 0.317550
H 154.559895 -4.109016 -1.594406
H 156.275958 -2.258504 -0.999877
H 150.862218 -0.728300 -0.462005
H 151.834740 5.484309 -0.406141
H 151.808027 7.898907 0.137261
H 151.482938 10.735051 1.988657
H 150.808786 6.936127 4.235602
H 150.854877 4.522899 3.658050
C 99.711510 0.038819 0.039521
C 100.933427 0.038819 0.039521
C 110.947334 0.038819 0.039521
C 112.169252 0.038819 0.039521
C 122.183159 0.038819 0.039521
C 123.405076 0.038819 0.039521
C 133.418983 0.038819 0.039521
C 134.640901 0.038819 0.039521
C 144.654808 0.038819 0.039521
C 145.876725 0.038819 0.039521
C 102.350172 -0.021288 -0.021673
C 103.144553 0.771718 -1.139777
C 102.640250 1.234916 -2.337957
C 103.677818 1.954915 -2.983808
C 104.784828 1.902821 -2.162874
N 104.472270 1.117550 -1.081618
C 106.173368 2.621767 -2.409807
C 107.308863 2.120583 -1.856742
C 108.595476 2.769513 -2.004432
C 109.503872 2.051569 -1.352728
N 107.517411 1.009327 -1.088270
C 108.842107 0.908497 -0.756965
C 109.506301 -0.021288 -0.021673
C 108.711624 -1.241369 0.602646
C 109.214426 -2.494968 0.886032
C 108.176446 -3.237265 1.505519
C 107.070998 -2.415616 1.574924
C 105.683384 -2.761643 2.253340
C 105.695895 -3.722529 3.379488
C 105.257526 -5.040120 3.195883
C 105.284171 -5.946806 4.258265
C 105.754063 -5.540789 5.513900
C 105.766140 -6.534380 6.614302
O 106.230309 -6.032172 7.774445
O 105.408311 -7.696867 6.543479
C 106.196905 -4.224938 5.700463
C 106.167957 -3.321635 4.634890
C 104.547369 -2.144831 1.834778
C 103.261465 -2.381316 2.458160
C 102.352910 -1.634390 1.840118
C 103.014109 -0.883494 0.792009
N 104.338133 -1.228642 0.841910
N 107.384332 -1.232270 0.954668
C 106.164976 3.864229 -3.214836
C 105.694965 5.059379 -2.658142
C 105.672066 6.230684 -3.419506
C 106.118104 6.212614 -4.747294
C 106.077282 7.477457 -5.519857
O 106.525244 7.339502 -6.782544
O 105.691056 8.560381 -5.117041
C 106.585934 5.017784 -5.309361
C 106.606397 3.849127 -4.544243
H 101.633059 1.091527 -2.698783
H 103.617717 2.469961 -3.930655
H 105.131671 0.805064 -0.374792
H 108.791571 3.681692 -2.538743
H 110.548388 2.295886 -1.286965
H 110.220732 -2.832781 0.690056
H 108.235063 -4.249174 1.877078
H 104.892380 -5.344998 2.216942
H 104.936612 -6.963754 4.097688
H 106.174727 -6.793238 8.386005
H 106.566424 -3.887061 6.663832
H 106.510703 -2.297458 4.770100
H 103.065650 -3.039087 3.285804
H 101.308664 -1.603137 2.092361
H 106.725591 -0.486951 0.748257
H 105.349367 5.064499 -1.626141
H 105.305248 7.149157 -2.969164
H 106.436701 8.241785 -7.149383
H 106.937347 4.979022 -6.335826
H 106.969540 2.915508 -4.970076
C 113.585997 -0.021288 -0.021673
C 114.380378 0.771718 -1.139777
C 113.876074 1.234916 -2.337957
C 114.913642 1.954915 -2.983808
C 116.020652 1.902821 -2.162874
N 115.708094 1.117550 -1.081618
C 117.409193 2.621767 -2.409807
C 118.544688 2.120583 -1.856742
C 119.831300 2.769513 -2.004432
C 120.739697 2.051569 -1.352728
N 118.753235 1.009327 -1.088270
C 120.077931 0.908497 -0.756965
C 120.742126 -0.021288 -0.021673
C 119.947448 -1.241369 0.602646
C 120.450250 -2.494968 0.886032
C 119.412270 -3.237265 1.505519
C 118.306822 -2.415616 1.574924
C 116.919208 -2.761643 2.253340
C 116.931719 -3.722529 3.379488
C 116.493351 -5.040120 3.195883
C 116.519996 -5.946806 4.258265
C 116.989888 -5.540789 5.513900
C 117.001964 -6.534380 6.614302
O 117.466133 -6.032172 7.774445
O 116.644135 -7.696867 6.543479
C 117.432729 -4.224938 5.700463
C 117.403782 -3.321635 4.634890
C 115.783193 -2.144831 1.834778
C 114.497290 -2.381316 2.458160
C 113.588734 -1.634390 1.840118
C 114.249933 -0.883494 0.792009
N 115.573958 -1.228642 0.841910
N 118.620156 -1.232270 0.954668
C 117.400800 3.864229 -3.214836
C 116.930789 5.059379 -2.658142
C 116.907891 6.230684 -3.419506
C 117.353929 6.212614 -4.747294
C 117.313107 7.477457 -5.519857
O 117.761068 7.339502 -6.782544
O 116.926880 8.560381 -5.117041
C 117.821758 5.017784 -5.309361
C 117.842222 3.849127 -4.544243
H 112.868884 1.091527 -2.698783
H 114.853542 2.469961 -3.930655
H 116.367495 0.805064 -0.374792
H 120.027395 3.681692 -2.538743
H 121.784213 2.295886 -1.286965
H 121.456557 -2.832781 0.690056
H 119.470888 -4.249174 1.877078
H 116.128205 -5.344998 2.216942
H 116.172436 -6.963754 4.097688
H 117.410552 -6.793238 8.386005
H 117.802248 -3.887061 6.663832
H 117.746527 -2.297458 4.770100
H 114.301475 -3.039087 3.285804
H 112.544489 -1.603137 2.092361
H 117.961416 -0.486951 0.748257
H 116.585192 5.064499 -1.626141
H 116.541073 7.149157 -2.969164
H 117.672525 8.241785 -7.149383
H 118.173171 4.979022 -6.335826
H 118.205365 2.915508 -4.970076
C 124.821821 -0.021288 -0.021673
C 125.616202 0.771718 -1.139777
C 125.111899 1.234916 -2.337957
C 126.149467 1.954915 -2.983808
C 127.256477 1.902821 -2.162874
N 126.943919 1.117550 -1.081618
C 128.645017 2.621767 -2.409807
C 129.780512 2.120583 -1.856742
C 131.067124 2.769513 -2.004432
C 131.975521 2.051569 -1.352728
N 129.989060 1.009327 -1.088270
C 131.313756 0.908497 -0.756965
C 131.977950 -0.021288 -0.021673
C 131.183273 -1.241369 0.602646
C 131.686075 -2.494968 0.886032
C 130.648095 -3.237265 1.505519
C 129.542647 -2.415616 1.574924
C 128.155033 -2.761643 2.253340
C 128.167544 -3.722529 3.379488
C 127.729175 -5.040120 3.195883
C 127.755820 -5.946806 4.258265
C 128.225712 -5.540789 5.513900
C 128.237789 -6.534380 6.614302
O 128.701958 -6.032172 7.774445
O 127.879960 -7.696867 6.543479
C 128.668554 -4.224938 5.700463
C 128.639606 -3.321635 4.634890
C 127.019018 -2.144831 1.834778
C 125.733114 -2.381316 2.458160
C 124.824558 -1.634390 1.840118
C 125.485758 -0.883494 0.792009
N 126.809782 -1.228642 0.841910
N 129.855981 -1.232270 0.954668
C 128.636625 3.864229 -3.214836
C 128.166613 5.059379 -2.658142
C 128.143715 6.230684 -3.419506
C 128.589753 6.212614 -4.747294
C 128.548931 7.477457 -5.519857
O 128.996893 7.339502 -6.782544
O 128.162705 8.560381 -5.117041
C 129.057583 5.017784 -5.309361
C 129.078046 3.849127 -4.544243
H 124.104708 1.091527 -2.698783
H 126.089366 2.469961 -3.930655
H 127.603319 0.805064 -0.374792
H 131.263220 3.681692 -2.538743
H 133.020037 2.295886 -1.286965
H 132.692381 -2.832781 0.690056
H 130.706712 -4.249174 1.877078
H 127.364029 -5.344998 2.216942
H 127.408261 -6.963754 4.097688
H 128.646376 -6.793238 8.386005
H 129.038073 -3.887061 6.663832
H 128.982352 -2.297458 4.770100
H 125.537299 -3.039087 3.285804
H 123.780313 -1.603137 2.092361
H 129.197240 -0.486951 0.748257
H 127.821016 5.064499 -1.626141
H 127.776897 7.149157 -2.969164
H 128.908350 8.241785 -7.149383
H 129.408996 4.979022 -6.335826
H 129.441189 2.915508 -4.970076
C 136.057646 -0.021288 -0.021673
C 136.852026 0.771718 -1.139777
C 136.347723 1.234916 -2.337957
C 137.385291 1.954915 -2.983808
C 138.492301 1.902821 -2.162874
N 138.179743 1.117550 -1.081618
C 139.880842 2.621767 -2.409807
C 141.016337 2.120583 -1.856742
C 142.302949 2.769513 -2.004432
C 143.211346 2.051569 -1.352728
N 141.224884 1.009327 -1.088270
C 142.549580 0.908497 -0.756965
C 143.213774 -0.021288 -0.021673
C 142.419097 -1.241369 0.602646
C 142.921899 -2.494968 0.886032
C 141.883919 -3.237265 1.505519
C 140.778471 -2.415616 1.574924
C 139.390857 -2.761643 2.253340
C 139.403368 -3.722529 3.379488
C 138.965000 -5.040120 3.195883
C 138.991645 -5.946806 4.258265
C 139.461537 -5.540789 5.513900
C 139.473613 -6.534380 6.614302
O 139.937782 -6.032172 7.774445
O 139.115784 -7.696867 6.543479
C 139.904378 -4.224938 5.700463
C 139.875430 -3.321635 4.634890
C 138.254842 -2.144831 1.834778
C 136.968938 -2.381316 2.458160
C 136.060383 -1.634390 1.840118
C 136.721582 -0.883494 0.792009
N 138.045607 -1.228642 0.841910
N 141.091805 -1.232270 0.954668
C 139.872449 3.864229 -3.214836
C 139.402438 5.059379 -2.658142
C 139.379540 6.230684 -3.419506
C 139.825578 6.212614 -4.747294
C 139.784756 7.477457 -5.519857
O 140.232717 7.339502 -6.782544
O 139.398529 8.560381 -5.117041
C 140.293407 5.017784 -5.309361
C 140.313871 3.849127 -4.544243
H 135.340532 1.091527 -2.698783
H 137.325191 2.469961 -3.930655
H 138.839144 0.805064 -0.374792
H 142.499044 3.681692 -2.538743
H 144.255862 2.295886 -1.286965
H 143.928206 -2.832781 0.690056
H 141.942537 -4.249174 1.877078
H 138.599854 -5.344998 2.216942
H 138.644085 -6.963754 4.097688
H 139.882201 -6.793238 8.386005
H 140.273897 -3.887061 6.663832
H 140.218176 -2.297458 4.770100
H 136.773124 -3.039087 3.285804
H 135.016138 -1.603137 2.092361
H 140.433065 -0.486951 0.748257
H 139.056840 5.064499 -1.626141
H 139.012722 7.149157 -2.969164
H 140.144174 8.241785 -7.149383
H 140.644820 4.979022 -6.335826
H 140.677014 2.915508 -4.970076
