574

C 127.748381 -0.048544 -0.181557
C 128.480696 -1.413639 -0.003729
C 127.880614 -2.651757 0.020040
C 128.904002 -3.604606 0.262488
C 130.093665 -2.913518 0.387221
N 129.830658 -1.584653 0.168017
C 131.510799 -3.524940 0.744777
C 131.543600 -4.911747 1.260613
C 131.844989 -5.976196 0.399961
C 131.869949 -7.286341 0.880798
C 131.588600 -7.525785 2.233014
N 131.612292 -8.900584 2.744390
O 131.881742 -9.814141 1.948763
O 131.359570 -9.080699 3.945942
C 131.284215 -6.469635 3.102863
C 131.262732 -5.163780 2.610089
C 132.641661 -2.778937 0.627150
C 133.941101 -3.291207 1.012212
C 134.843988 -2.338630 0.810860
N 132.841515 -1.497446 0.188173
C 134.170218 -1.172331 0.275660
C 134.838610 -0.030519 -0.037504
C 134.062979 1.212537 -0.644729
C 134.603065 2.201134 -1.443506
C 133.577128 3.141641 -1.711397
C 132.437927 2.695700 -1.075892
N 132.728929 1.492887 -0.477373
C 131.029811 3.422255 -1.054962
C 131.004085 4.885302 -1.263554
C 130.642556 5.416263 -2.509533
C 130.627311 6.797434 -2.710692
C 130.980319 7.647769 -1.653824
N 130.966107 9.100346 -1.858422
O 130.651561 9.528095 -2.980243
O 131.270171 9.827787 -0.900066
C 131.347002 7.128854 -0.404543
C 131.357879 5.745631 -0.216027
C 129.901317 2.703158 -0.824441
C 128.578933 3.302252 -0.779230
C 127.691716 2.338792 -0.549357
C 128.413071 1.096063 -0.426615
N 129.735117 1.367117 -0.591624
H 126.669703 -0.033616 -0.080877
H 126.826445 -2.845391 -0.106053
H 128.779695 -4.672266 0.360138
H 130.526673 -0.843610 0.139112
H 132.064057 -5.764064 -0.645402
H 132.109649 -8.092915 0.193628
H 131.064748 -6.637227 4.153588
H 131.031229 -4.326669 3.266948
H 134.152023 -4.268724 1.406767
H 135.894564 -2.439030 1.014052
H 135.625145 2.249479 -1.787518
H 133.662866 4.043788 -2.297700
H 132.046234 0.883497 -0.034490
H 130.369304 4.735105 -3.314090
H 130.339526 7.182690 -3.684813
H 131.623827 7.773215 0.425199
H 131.638447 5.319987 0.746204
H 128.348008 4.344062 -0.907163
H 126.627213 2.458671 -0.459480
C 240.788999 -0.088993 -0.170384
C 240.056684 1.173821 -0.718481
C 240.656766 2.248582 -1.333615
C 239.633378 3.190772 -1.614648
C 238.443715 2.661703 -1.152862
N 238.706722 1.408744 -0.658870
C 237.026581 3.369964 -1.159852
C 236.993780 4.824911 -1.429013
C 236.692391 5.296651 -2.714017
C 236.667431 6.667842 -2.973864
C 236.948780 7.567433 -1.936293
N 236.925088 9.009786 -2.203119
O 236.655638 9.385406 -3.354864
O 237.177810 9.781125 -1.264393
C 237.253165 7.107537 -0.647655
C 237.274648 5.733901 -0.400255
C 235.895719 2.669361 -0.877872
C 234.596279 3.306649 -0.810361
C 233.693392 2.385786 -0.494199
N 235.695865 1.344249 -0.596808
C 234.367162 1.110140 -0.354843
C 233.698770 -0.030519 -0.037504
C 234.474401 -1.409009 0.079439
C 233.934315 -2.667445 -0.098623
C 234.960252 -3.612103 0.154237
C 236.099453 -2.903186 0.470728
N 235.808451 -1.563702 0.366971
C 237.507569 -3.515977 0.861635
C 237.533295 -4.878644 1.433610
C 237.894824 -5.973885 0.636849
C 237.910069 -7.262470 1.173175
C 237.557061 -7.449737 2.516667
N 237.571273 -8.801368 3.086695
O 237.885819 -9.744303 2.343508
O 237.267209 -8.933733 4.282562
C 237.190378 -6.363138 3.322445
C 237.179501 -5.079282 2.774215
C 238.636063 -2.780516 0.690353
C 239.958447 -3.271454 1.036672
C 240.845664 -2.326612 0.739401
C 240.124309 -1.197091 0.206839
N 238.802263 -1.514411 0.204361
H 241.867677 -0.050124 -0.076317
H 241.710935 2.350035 -1.541223
H 239.757685 4.157169 -2.078879
H 238.010707 0.757939 -0.303295
H 236.473323 4.578007 -3.502266
H 236.427731 7.007320 -3.977617
H 237.472632 7.790708 0.168057
H 237.506151 5.352657 0.593159
H 234.385357 4.348087 -0.973516
H 232.642816 2.576250 -0.371354
H 232.912235 -2.885518 -0.369041
H 234.874514 -4.687284 0.114146
H 236.491146 -0.813385 0.434252
H 238.168076 -5.802295 -0.403270
H 238.197854 -8.093122 0.534932
H 236.913553 -6.490222 4.365289
H 236.898933 -4.220073 3.381523
H 240.189372 -4.231211 1.461645
H 241.910167 -2.383359 0.878068
C 137.993253 -0.018082 -0.035062
C 136.740982 -0.037263 -0.039411
C 139.306921 -0.018848 -0.033130
C 140.810055 -0.037263 -0.039411
C 151.004160 -0.018082 -0.035062
C 149.751889 -0.037263 -0.039411
C 152.317828 -0.018848 -0.033130
C 153.820962 -0.037263 -0.039411
C 164.015067 -0.018082 -0.035062
C 162.762796 -0.037263 -0.039411
C 165.328735 -0.018848 -0.033130
C 166.831869 -0.037263 -0.039411
C 177.025974 -0.018082 -0.035062
C 175.773703 -0.037263 -0.039411
C 178.339642 -0.018848 -0.033130
C 179.842776 -0.037263 -0.039411
C 190.036881 -0.018082 -0.035062
C 188.784610 -0.037263 -0.039411
C 191.350549 -0.018848 -0.033130
C 192.853683 -0.037263 -0.039411
C 203.047788 -0.018082 -0.035062
C 201.795517 -0.037263 -0.039411
C 204.361456 -0.018848 -0.033130
C 205.864590 -0.037263 -0.039411
C 216.058695 -0.018082 -0.035062
C 214.806424 -0.037263 -0.039411
C 217.372363 -0.018848 -0.033130
C 218.875497 -0.037263 -0.039411
C 229.069602 -0.018082 -0.035062
C 227.817331 -0.037263 -0.039411
C 230.383270 -0.018848 -0.033130
C 231.886404 -0.037263 -0.039411
C 141.656309 0.011704 0.013897
C 142.452012 1.247392 -0.576540
C 141.952244 2.509991 -0.821951
C 142.991214 3.266767 -1.422158
C 144.093645 2.443717 -1.519030
N 143.778318 1.244352 -0.931745
C 145.479941 2.803182 -2.191131
C 145.467406 3.791901 -3.291454
C 145.904967 5.104990 -3.068127
C 145.882629 6.042269 -4.102299
C 145.414476 5.657331 -5.366142
N 145.387982 6.637628 -6.457209
O 144.983128 6.262932 -7.568822
O 145.770981 7.792545 -6.212593
C 144.970551 4.348879 -5.600948
C 144.998360 3.420671 -4.558457
C 146.616771 2.176568 -1.790905
C 147.902069 2.427777 -2.410128
C 148.811441 1.666964 -1.810480
N 146.826980 1.237038 -0.821043
C 148.151198 0.891883 -0.779797
C 148.815616 0.011704 0.013897
C 148.019861 -0.805958 1.112446
C 148.519362 -1.289648 2.304378
C 147.480413 -2.024700 2.931056
C 146.378256 -1.961667 2.104356
N 146.693726 -1.154425 1.040579
C 144.992045 -2.690618 2.327246
C 145.004626 -3.961095 3.084935
C 145.472617 -5.132822 2.475723
C 145.500413 -6.334901 3.185196
C 145.057581 -6.356875 4.514734
N 145.084114 -7.616657 5.265964
O 144.702753 -7.599266 6.446905
O 145.487367 -8.635354 4.683199
C 144.590489 -5.190891 5.136779
C 144.568086 -3.995239 4.416772
C 143.855203 -2.176990 1.789682
C 142.569903 -2.833014 1.916764
C 141.660513 -2.097808 1.286002
C 142.320754 -0.936945 0.724325
N 143.644985 -1.044061 1.054961
H 140.947383 2.844737 -0.613083
H 142.933995 4.289530 -1.762500
H 144.434987 0.491577 -0.746992
H 146.266668 5.379855 -2.078408
H 146.231146 7.051809 -3.903294
H 144.603587 4.033801 -6.573801
H 144.657838 2.398768 -4.718431
H 148.098383 3.104206 -3.222253
H 149.855672 1.641464 -2.063825
H 149.524028 -1.148711 2.673454
H 147.537458 -2.555496 3.869223
H 146.037166 -0.828353 0.337287
H 145.812296 -5.092683 1.441876
H 145.866537 -7.228812 2.687945
H 144.242844 -5.190353 6.166039
H 144.207155 -3.077031 4.877809
H 142.373589 -3.760354 2.423846
H 140.616267 -2.341432 1.212186
C 154.667216 0.011704 0.013897
C 155.462919 1.247392 -0.576540
C 154.963151 2.509991 -0.821951
C 156.002121 3.266767 -1.422158
C 157.104552 2.443717 -1.519030
N 156.789225 1.244352 -0.931745
C 158.490848 2.803182 -2.191131
C 158.478313 3.791901 -3.291454
C 158.915874 5.104990 -3.068127
C 158.893536 6.042269 -4.102299
C 158.425383 5.657331 -5.366142
N 158.398889 6.637628 -6.457209
O 157.994035 6.262932 -7.568822
O 158.781888 7.792545 -6.212593
C 157.981458 4.348879 -5.600948
C 158.009267 3.420671 -4.558457
C 159.627678 2.176568 -1.790905
C 160.912976 2.427777 -2.410128
C 161.822348 1.666964 -1.810480
N 159.837887 1.237038 -0.821043
C 161.162105 0.891883 -0.779797
C 161.826523 0.011704 0.013897
C 161.030768 -0.805958 1.112446
C 161.530269 -1.289648 2.304378
C 160.491320 -2.024700 2.931056
C 159.389163 -1.961667 2.104356
N 159.704633 -1.154425 1.040579
C 158.002952 -2.690618 2.327246
C 158.015533 -3.961095 3.084935
C 158.483524 -5.132822 2.475723
C 158.511320 -6.334901 3.185196
C 158.068488 -6.356875 4.514734
N 158.095021 -7.616657 5.265964
O 157.713660 -7.599266 6.446905
O 158.498274 -8.635354 4.683199
C 157.601396 -5.190891 5.136779
C 157.578993 -3.995239 4.416772
C 156.866110 -2.176990 1.789682
C 155.580810 -2.833014 1.916764
C 154.671420 -2.097808 1.286002
C 155.331661 -0.936945 0.724325
N 156.655892 -1.044061 1.054961
H 153.958290 2.844737 -0.613083
H 155.944902 4.289530 -1.762500
H 157.445894 0.491577 -0.746992
H 159.277575 5.379855 -2.078408
H 159.242053 7.051809 -3.903294
H 157.614494 4.033801 -6.573801
H 157.668745 2.398768 -4.718431
H 161.109290 3.104206 -3.222253
H 162.866579 1.641464 -2.063825
H 162.534935 -1.148711 2.673454
H 160.548365 -2.555496 3.869223
H 159.048073 -0.828353 0.337287
H 158.823203 -5.092683 1.441876
H 158.877444 -7.228812 2.687945
H 157.253751 -5.190353 6.166039
H 157.218062 -3.077031 4.877809
H 155.384496 -3.760354 2.423846
H 153.627174 -2.341432 1.212186
C 167.678123 0.011704 0.013897
C 168.473826 1.247392 -0.576540
C 167.974058 2.509991 -0.821951
C 169.013028 3.266767 -1.422158
C 170.115459 2.443717 -1.519030
N 169.800132 1.244352 -0.931745
C 171.501755 2.803182 -2.191131
C 171.489220 3.791901 -3.291454
C 171.926781 5.104990 -3.068127
C 171.904443 6.042269 -4.102299
C 171.436290 5.657331 -5.366142
N 171.409796 6.637628 -6.457209
O 171.004942 6.262932 -7.568822
O 171.792795 7.792545 -6.212593
C 170.992365 4.348879 -5.600948
C 171.020174 3.420671 -4.558457
C 172.638585 2.176568 -1.790905
C 173.923883 2.427777 -2.410128
C 174.833255 1.666964 -1.810480
N 172.848794 1.237038 -0.821043
C 174.173012 0.891883 -0.779797
C 174.837430 0.011704 0.013897
C 174.041675 -0.805958 1.112446
C 174.541176 -1.289648 2.304378
C 173.502227 -2.024700 2.931056
C 172.400070 -1.961667 2.104356
N 172.715540 -1.154425 1.040579
C 171.013859 -2.690618 2.327246
C 171.026440 -3.961095 3.084935
C 171.494431 -5.132822 2.475723
C 171.522227 -6.334901 3.185196
C 171.079395 -6.356875 4.514734
N 171.105928 -7.616657 5.265964
O 170.724567 -7.599266 6.446905
O 171.509181 -8.635354 4.683199
C 170.612302 -5.190891 5.136779
C 170.589900 -3.995239 4.416772
C 169.877017 -2.176990 1.789682
C 168.591717 -2.833014 1.916764
C 167.682327 -2.097808 1.286002
C 168.342568 -0.936945 0.724325
N 169.666799 -1.044061 1.054961
H 166.969197 2.844737 -0.613083
H 168.955809 4.289530 -1.762500
H 170.456801 0.491577 -0.746992
H 172.288482 5.379855 -2.078408
H 172.252960 7.051809 -3.903294
H 170.625401 4.033801 -6.573801
H 170.679652 2.398768 -4.718431
H 174.120197 3.104206 -3.222253
H 175.877486 1.641464 -2.063825
H 175.545842 -1.148711 2.673454
H 173.559271 -2.555496 3.869223
H 172.058980 -0.828353 0.337287
H 171.834110 -5.092683 1.441876
H 171.888351 -7.228812 2.687945
H 170.264658 -5.190353 6.166039
H 170.228969 -3.077031 4.877809
H 168.395403 -3.760354 2.423846
H 166.638081 -2.341432 1.212186
C 180.689030 0.011704 0.013897
C 181.484733 1.247392 -0.576540
C 180.984965 2.509991 -0.821951
C 182.023935 3.266767 -1.422158
C 183.126366 2.443717 -1.519030
N 182.811039 1.244352 -0.931745
C 184.512662 2.803182 -2.191131
C 184.500127 3.791901 -3.291454
C 184.937688 5.104990 -3.068127
C 184.915349 6.042269 -4.102299
C 184.447197 5.657331 -5.366142
N 184.420703 6.637628 -6.457209
O 184.015849 6.262932 -7.568822
O 184.803702 7.792545 -6.212593
C 184.003272 4.348879 -5.600948
C 184.031081 3.420671 -4.558457
C 185.649492 2.176568 -1.790905
C 186.934790 2.427777 -2.410128
C 187.844162 1.666964 -1.810480
N 185.859701 1.237038 -0.821043
C 187.183919 0.891883 -0.779797
C 187.848337 0.011704 0.013897
C 187.052582 -0.805958 1.112446
C 187.552083 -1.289648 2.304378
C 186.513134 -2.024700 2.931056
C 185.410977 -1.961667 2.104356
N 185.726447 -1.154425 1.040579
C 184.024766 -2.690618 2.327246
C 184.037346 -3.961095 3.084935
C 184.505338 -5.132822 2.475723
C 184.533134 -6.334901 3.185196
C 184.090302 -6.356875 4.514734
N 184.116835 -7.616657 5.265964
O 183.735474 -7.599266 6.446905
O 184.520088 -8.635354 4.683199
C 183.623209 -5.190891 5.136779
C 183.600807 -3.995239 4.416772
C 182.887924 -2.176990 1.789682
C 181.602624 -2.833014 1.916764
C 180.693234 -2.097808 1.286002
C 181.353474 -0.936945 0.724325
N 182.677706 -1.044061 1.054961
H 179.980104 2.844737 -0.613083
H 181.966716 4.289530 -1.762500
H 183.467708 0.491577 -0.746992
H 185.299389 5.379855 -2.078408
H 185.263867 7.051809 -3.903294
H 183.636308 4.033801 -6.573801
H 183.690559 2.398768 -4.718431
H 187.131104 3.104206 -3.222253
H 188.888393 1.641464 -2.063825
H 188.556749 -1.148711 2.673454
H 186.570178 -2.555496 3.869223
H 185.069887 -0.828353 0.337287
H 184.845017 -5.092683 1.441876
H 184.899258 -7.228812 2.687945
H 183.275565 -5.190353 6.166039
H 183.239876 -3.077031 4.877809
H 181.406310 -3.760354 2.423846
H 179.648988 -2.341432 1.212186
C 193.699937 0.011704 0.013897
C 194.495640 1.247392 -0.576540
C 193.995872 2.509991 -0.821951
C 195.034842 3.266767 -1.422158
C 196.137273 2.443717 -1.519030
N 195.821946 1.244352 -0.931745
C 197.523569 2.803182 -2.191131
C 197.511034 3.791901 -3.291454
C 197.948595 5.104990 -3.068127
C 197.926256 6.042269 -4.102299
C 197.458104 5.657331 -5.366142
N 197.431610 6.637628 -6.457209
O 197.026756 6.262932 -7.568822
O 197.814609 7.792545 -6.212593
C 197.014179 4.348879 -5.600948
C 197.041988 3.420671 -4.558457
C 198.660399 2.176568 -1.790905
C 199.945697 2.427777 -2.410128
C 200.855069 1.666964 -1.810480
N 198.870608 1.237038 -0.821043
C 200.194826 0.891883 -0.779797
C 200.859244 0.011704 0.013897
C 200.063489 -0.805958 1.112446
C 200.562990 -1.289648 2.304378
C 199.524041 -2.024700 2.931056
C 198.421884 -1.961667 2.104356
N 198.737354 -1.154425 1.040579
C 197.035673 -2.690618 2.327246
C 197.048253 -3.961095 3.084935
C 197.516245 -5.132822 2.475723
C 197.544041 -6.334901 3.185196
C 197.101209 -6.356875 4.514734
N 197.127742 -7.616657 5.265964
O 196.746381 -7.599266 6.446905
O 197.530995 -8.635354 4.683199
C 196.634116 -5.190891 5.136779
C 196.611714 -3.995239 4.416772
C 195.898831 -2.176990 1.789682
C 194.613531 -2.833014 1.916764
C 193.704141 -2.097808 1.286002
C 194.364381 -0.936945 0.724325
N 195.688613 -1.044061 1.054961
H 192.991011 2.844737 -0.613083
H 194.977623 4.289530 -1.762500
H 196.478615 0.491577 -0.746992
H 198.310296 5.379855 -2.078408
H 198.274774 7.051809 -3.903294
H 196.647215 4.033801 -6.573801
H 196.701466 2.398768 -4.718431
H 200.142011 3.104206 -3.222253
H 201.899300 1.641464 -2.063825
H 201.567656 -1.148711 2.673454
H 199.581085 -2.555496 3.869223
H 198.080794 -0.828353 0.337287
H 197.855923 -5.092683 1.441876
H 197.910165 -7.228812 2.687945
H 196.286472 -5.190353 6.166039
H 196.250783 -3.077031 4.877809
H 194.417217 -3.760354 2.423846
H 192.659895 -2.341432 1.212186
C 206.710844 0.011704 0.013897
C 207.506547 1.247392 -0.576540
C 207.006779 2.509991 -0.821951
C 208.045749 3.266767 -1.422158
C 209.148180 2.443717 -1.519030
N 208.832853 1.244352 -0.931745
C 210.534476 2.803182 -2.191131
C 210.521941 3.791901 -3.291454
C 210.959502 5.104990 -3.068127
C 210.937163 6.042269 -4.102299
C 210.469011 5.657331 -5.366142
N 210.442517 6.637628 -6.457209
O 210.037663 6.262932 -7.568822
O 210.825516 7.792545 -6.212593
C 210.025086 4.348879 -5.600948
C 210.052895 3.420671 -4.558457
C 211.671306 2.176568 -1.790905
C 212.956604 2.427777 -2.410128
C 213.865976 1.666964 -1.810480
N 211.881515 1.237038 -0.821043
C 213.205733 0.891883 -0.779797
C 213.870151 0.011704 0.013897
C 213.074396 -0.805958 1.112446
C 213.573897 -1.289648 2.304378
C 212.534948 -2.024700 2.931056
C 211.432791 -1.961667 2.104356
N 211.748261 -1.154425 1.040579
C 210.046580 -2.690618 2.327246
C 210.059160 -3.961095 3.084935
C 210.527152 -5.132822 2.475723
C 210.554948 -6.334901 3.185196
C 210.112116 -6.356875 4.514734
N 210.138649 -7.616657 5.265964
O 209.757288 -7.599266 6.446905
O 210.541902 -8.635354 4.683199
C 209.645023 -5.190891 5.136779
C 209.622621 -3.995239 4.416772
C 208.909738 -2.176990 1.789682
C 207.624438 -2.833014 1.916764
C 206.715048 -2.097808 1.286002
C 207.375288 -0.936945 0.724325
N 208.699520 -1.044061 1.054961
H 206.001918 2.844737 -0.613083
H 207.988530 4.289530 -1.762500
H 209.489522 0.491577 -0.746992
H 211.321203 5.379855 -2.078408
H 211.285681 7.051809 -3.903294
H 209.658122 4.033801 -6.573801
H 209.712373 2.398768 -4.718431
H 213.152918 3.104206 -3.222253
H 214.910207 1.641464 -2.063825
H 214.578563 -1.148711 2.673454
H 212.591992 -2.555496 3.869223
H 211.091701 -0.828353 0.337287
H 210.866830 -5.092683 1.441876
H 210.921072 -7.228812 2.687945
H 209.297379 -5.190353 6.166039
H 209.261690 -3.077031 4.877809
H 207.428124 -3.760354 2.423846
H 205.670802 -2.341432 1.212186
C 219.721751 0.011704 0.013897
C 220.517454 1.247392 -0.576540
C 220.017686 2.509991 -0.821951
C 221.056656 3.266767 -1.422158
C 222.159087 2.443717 -1.519030
N 221.843760 1.244352 -0.931745
C 223.545383 2.803182 -2.191131
C 223.532848 3.791901 -3.291454
C 223.970409 5.104990 -3.068127
C 223.948070 6.042269 -4.102299
C 223.479918 5.657331 -5.366142
N 223.453424 6.637628 -6.457209
O 223.048570 6.262932 -7.568822
O 223.836423 7.792545 -6.212593
C 223.035993 4.348879 -5.600948
C 223.063802 3.420671 -4.558457
C 224.682213 2.176568 -1.790905
C 225.967511 2.427777 -2.410128
C 226.876883 1.666964 -1.810480
N 224.892422 1.237038 -0.821043
C 226.216640 0.891883 -0.779797
C 226.881058 0.011704 0.013897
C 226.085303 -0.805958 1.112446
C 226.584804 -1.289648 2.304378
C 225.545855 -2.024700 2.931056
C 224.443698 -1.961667 2.104356
N 224.759168 -1.154425 1.040579
C 223.057487 -2.690618 2.327246
C 223.070067 -3.961095 3.084935
C 223.538059 -5.132822 2.475723
C 223.565855 -6.334901 3.185196
C 223.123023 -6.356875 4.514734
N 223.149556 -7.616657 5.265964
O 222.768195 -7.599266 6.446905
O 223.552809 -8.635354 4.683199
C 222.655930 -5.190891 5.136779
C 222.633528 -3.995239 4.416772
C 221.920645 -2.176990 1.789682
C 220.635345 -2.833014 1.916764
C 219.725955 -2.097808 1.286002
C 220.386195 -0.936945 0.724325
N 221.710427 -1.044061 1.054961
H 219.012825 2.844737 -0.613083
H 220.999437 4.289530 -1.762500
H 222.500429 0.491577 -0.746992
H 224.332110 5.379855 -2.078408
H 224.296587 7.051809 -3.903294
H 222.669029 4.033801 -6.573801
H 222.723280 2.398768 -4.718431
H 226.163825 3.104206 -3.222253
H 227.921114 1.641464 -2.063825
H 227.589470 -1.148711 2.673454
H 225.602899 -2.555496 3.869223
H 224.102608 -0.828353 0.337287
H 223.877737 -5.092683 1.441876
H 223.931979 -7.228812 2.687945
H 222.308286 -5.190353 6.166039
H 222.272597 -3.077031 4.877809
H 220.439031 -3.760354 2.423846
H 218.681709 -2.341432 1.212186
