 xtb: 6.5.1 (b24c23e)
          07302205433D

306345  0     0  0            999 V2000
   49.4889    0.0175   -0.0324 Ni  0  0  0  0  0  0  0  0  0  0  0  0
   46.0872    0.0978   -0.0856 C   0  0  0  0  0  0  0  0  0  0  0  0
   46.7531    1.1940    0.4217 C   0  0  0  0  0  0  0  0  0  0  0  0
   46.0883    2.3556    0.9300 C   0  0  0  0  0  0  0  0  0  0  0  0
   47.0562    3.2144    1.3271 C   0  0  0  0  0  0  0  0  0  0  0  0
   48.3111    2.5765    1.0571 C   0  0  0  0  0  0  0  0  0  0  0  0
   48.1158    1.3342    0.5071 N   0  0  0  0  0  0  0  0  0  0  0  0
   49.5387    3.1672    1.3125 C   0  0  0  0  0  0  0  0  0  0  0  0
   49.5643    4.5382    1.8966 C   0  0  0  0  0  0  0  0  0  0  0  0
   49.5238    5.6545    1.0561 C   0  0  0  0  0  0  0  0  0  0  0  0
   49.4494    5.4697   -0.4362 C   0  0  0  0  0  0  0  0  0  0  0  0
   49.5534    6.9284    1.6111 C   0  0  0  0  0  0  0  0  0  0  0  0
   49.6216    7.1063    2.9892 C   0  0  0  0  0  0  0  0  0  0  0  0
   49.6764    8.4910    3.5759 C   0  0  0  0  0  0  0  0  0  0  0  0
   49.6609    5.9882    3.8157 C   0  0  0  0  0  0  0  0  0  0  0  0
   49.6326    4.7048    3.2827 C   0  0  0  0  0  0  0  0  0  0  0  0
   49.6756    3.4990    4.1831 C   0  0  0  0  0  0  0  0  0  0  0  0
   50.7461    2.5427    1.0428 C   0  0  0  0  0  0  0  0  0  0  0  0
   52.0175    3.1512    1.2926 C   0  0  0  0  0  0  0  0  0  0  0  0
   52.9596    2.2528    0.9189 C   0  0  0  0  0  0  0  0  0  0  0  0
   50.9072    1.2812    0.5165 N   0  0  0  0  0  0  0  0  0  0  0  0
   52.2614    1.1000    0.4435 C   0  0  0  0  0  0  0  0  0  0  0  0
   52.9109   -0.0450   -0.0223 C   0  0  0  0  0  0  0  0  0  0  0  0
   52.2229   -1.1697   -0.4817 C   0  0  0  0  0  0  0  0  0  0  0  0
   52.8814   -2.3537   -0.9367 C   0  0  0  0  0  0  0  0  0  0  0  0
   51.9093   -3.2255   -1.2960 C   0  0  0  0  0  0  0  0  0  0  0  0
   50.6595   -2.5673   -1.0637 C   0  0  0  0  0  0  0  0  0  0  0  0
   50.8635   -1.3039   -0.5568 N   0  0  0  0  0  0  0  0  0  0  0  0
   49.4318   -3.1472   -1.3409 C   0  0  0  0  0  0  0  0  0  0  0  0
   49.4085   -4.5274   -1.9032 C   0  0  0  0  0  0  0  0  0  0  0  0
   49.4921   -4.7187   -3.2859 C   0  0  0  0  0  0  0  0  0  0  0  0
   49.6038   -3.5304   -4.2033 C   0  0  0  0  0  0  0  0  0  0  0  0
   49.4720   -6.0098   -3.7982 C   0  0  0  0  0  0  0  0  0  0  0  0
   49.3709   -7.1128   -2.9549 C   0  0  0  0  0  0  0  0  0  0  0  0
   49.3434   -8.5018   -3.5333 C   0  0  0  0  0  0  0  0  0  0  0  0
   49.2880   -6.9103   -1.5823 C   0  0  0  0  0  0  0  0  0  0  0  0
   49.3060   -5.6268   -1.0471 C   0  0  0  0  0  0  0  0  0  0  0  0
   49.2176   -5.4155    0.4408 C   0  0  0  0  0  0  0  0  0  0  0  0
   48.2259   -2.4988   -1.1247 C   0  0  0  0  0  0  0  0  0  0  0  0
   46.9512   -3.0810   -1.4256 C   0  0  0  0  0  0  0  0  0  0  0  0
   46.0135   -2.1689   -1.0781 C   0  0  0  0  0  0  0  0  0  0  0  0
   46.7165   -1.0327   -0.5638 C   0  0  0  0  0  0  0  0  0  0  0  0
   48.0728   -1.2396   -0.6002 N   0  0  0  0  0  0  0  0  0  0  0  0
   45.0040    0.1241   -0.1049 H   0  0  0  0  0  0  0  0  0  0  0  0
   45.0175    2.4774    0.9696 H   0  0  0  0  0  0  0  0  0  0  0  0
   46.9507    4.1941    1.7646 H   0  0  0  0  0  0  0  0  0  0  0  0
   48.5306    4.9460   -0.7073 H   0  0  0  0  0  0  0  0  0  0  0  0
   50.2910    4.8696   -0.7867 H   0  0  0  0  0  0  0  0  0  0  0  0
   49.4668    6.4311   -0.9488 H   0  0  0  0  0  0  0  0  0  0  0  0
   49.5223    7.7951    0.9590 H   0  0  0  0  0  0  0  0  0  0  0  0
   49.2553    8.5045    4.5814 H   0  0  0  0  0  0  0  0  0  0  0  0
   50.7141    8.8273    3.6375 H   0  0  0  0  0  0  0  0  0  0  0  0
   49.1278    9.1985    2.9535 H   0  0  0  0  0  0  0  0  0  0  0  0
   49.7135    6.1176    4.8918 H   0  0  0  0  0  0  0  0  0  0  0  0
   50.5657    2.9024    3.9743 H   0  0  0  0  0  0  0  0  0  0  0  0
   49.6930    3.7961    5.2312 H   0  0  0  0  0  0  0  0  0  0  0  0
   48.8028    2.8662    4.0120 H   0  0  0  0  0  0  0  0  0  0  0  0
   52.1538    4.1399    1.6998 H   0  0  0  0  0  0  0  0  0  0  0  0
   54.0330    2.3458    0.9557 H   0  0  0  0  0  0  0  0  0  0  0  0
   53.9511   -2.4847   -0.9679 H   0  0  0  0  0  0  0  0  0  0  0  0
   52.0118   -4.2257   -1.6847 H   0  0  0  0  0  0  0  0  0  0  0  0
   48.7533   -2.8608   -4.0620 H   0  0  0  0  0  0  0  0  0  0  0  0
   49.6326   -3.8451   -5.2460 H   0  0  0  0  0  0  0  0  0  0  0  0
   50.5122   -2.9662   -3.9832 H   0  0  0  0  0  0  0  0  0  0  0  0
   49.5372   -6.1600   -4.8709 H   0  0  0  0  0  0  0  0  0  0  0  0
   50.1741   -8.6436   -4.2264 H   0  0  0  0  0  0  0  0  0  0  0  0
   49.4104   -9.2542   -2.7477 H   0  0  0  0  0  0  0  0  0  0  0  0
   48.4146   -8.6603   -4.0854 H   0  0  0  0  0  0  0  0  0  0  0  0
   49.2096   -7.7636   -0.9166 H   0  0  0  0  0  0  0  0  0  0  0  0
   48.3199   -4.8462    0.6894 H   0  0  0  0  0  0  0  0  0  0  0  0
   50.0804   -4.8488    0.7956 H   0  0  0  0  0  0  0  0  0  0  0  0
   49.1834   -6.3684    0.9681 H   0  0  0  0  0  0  0  0  0  0  0  0
   46.8129   -4.0626   -1.8498 H   0  0  0  0  0  0  0  0  0  0  0  0
   44.9399   -2.2397   -1.1529 H   0  0  0  0  0  0  0  0  0  0  0  0
   89.8494   -0.0101   -0.0866 Ni  0  0  0  0  0  0  0  0  0  0  0  0
   93.2489   -0.0375   -0.1796 C   0  0  0  0  0  0  0  0  0  0  0  0
   92.5813   -1.1902   -0.5380 C   0  0  0  0  0  0  0  0  0  0  0  0
   93.2425   -2.3973   -0.9328 C   0  0  0  0  0  0  0  0  0  0  0  0
   92.2720   -3.2856   -1.2513 C   0  0  0  0  0  0  0  0  0  0  0  0
   91.0192   -2.6168   -1.0567 C   0  0  0  0  0  0  0  0  0  0  0  0
   91.2183   -1.3375   -0.6010 N   0  0  0  0  0  0  0  0  0  0  0  0
   89.7919   -3.1895   -1.3522 C   0  0  0  0  0  0  0  0  0  0  0  0
   89.7619   -4.5801   -1.8877 C   0  0  0  0  0  0  0  0  0  0  0  0
   89.8739   -4.8033   -3.2630 C   0  0  0  0  0  0  0  0  0  0  0  0
   90.0293   -3.6382   -4.2036 C   0  0  0  0  0  0  0  0  0  0  0  0
   89.8401   -6.1055   -3.7482 C   0  0  0  0  0  0  0  0  0  0  0  0
   89.6980   -7.1867   -2.8847 C   0  0  0  0  0  0  0  0  0  0  0  0
   89.6405   -8.5907   -3.4232 C   0  0  0  0  0  0  0  0  0  0  0  0
   89.5876   -6.9524   -1.5178 C   0  0  0  0  0  0  0  0  0  0  0  0
   89.6181   -5.6589   -1.0104 C   0  0  0  0  0  0  0  0  0  0  0  0
   89.4973   -5.4125    0.4699 C   0  0  0  0  0  0  0  0  0  0  0  0
   88.5888   -2.5243   -1.1755 C   0  0  0  0  0  0  0  0  0  0  0  0
   87.3184   -3.0939   -1.5078 C   0  0  0  0  0  0  0  0  0  0  0  0
   86.3788   -2.1855   -1.1521 C   0  0  0  0  0  0  0  0  0  0  0  0
   88.4302   -1.2692   -0.6336 N   0  0  0  0  0  0  0  0  0  0  0  0
   87.0773   -1.0675   -0.5998 C   0  0  0  0  0  0  0  0  0  0  0  0
   86.4301    0.0386   -0.0451 C   0  0  0  0  0  0  0  0  0  0  0  0
   87.1214    1.1191    0.5063 C   0  0  0  0  0  0  0  0  0  0  0  0
   86.4687    2.2457    1.0957 C   0  0  0  0  0  0  0  0  0  0  0  0
   87.4430    3.1150    1.4562 C   0  0  0  0  0  0  0  0  0  0  0  0
   88.6883    2.5161    1.0824 C   0  0  0  0  0  0  0  0  0  0  0  0
   88.4802    1.2789    0.5162 N   0  0  0  0  0  0  0  0  0  0  0  0
   89.9131    3.1468    1.2335 C   0  0  0  0  0  0  0  0  0  0  0  0
   89.9386    4.5220    1.8075 C   0  0  0  0  0  0  0  0  0  0  0  0
   89.7985    5.6304    0.9663 C   0  0  0  0  0  0  0  0  0  0  0  0
   89.6235    5.4318   -0.5156 C   0  0  0  0  0  0  0  0  0  0  0  0
   89.8212    6.9078    1.5118 C   0  0  0  0  0  0  0  0  0  0  0  0
   89.9797    7.0981    2.8817 C   0  0  0  0  0  0  0  0  0  0  0  0
   90.0102    8.4916    3.4492 C   0  0  0  0  0  0  0  0  0  0  0  0
   90.1185    5.9889    3.7079 C   0  0  0  0  0  0  0  0  0  0  0  0
   90.0994    4.7009    3.1838 C   0  0  0  0  0  0  0  0  0  0  0  0
   90.2490    3.5041    4.0848 C   0  0  0  0  0  0  0  0  0  0  0  0
   91.1136    2.5577    0.8679 C   0  0  0  0  0  0  0  0  0  0  0  0
   92.3861    3.2029    1.0058 C   0  0  0  0  0  0  0  0  0  0  0  0
   93.3220    2.3101    0.6067 C   0  0  0  0  0  0  0  0  0  0  0  0
   92.6203    1.1213    0.2268 C   0  0  0  0  0  0  0  0  0  0  0  0
   91.2656    1.2864    0.3732 N   0  0  0  0  0  0  0  0  0  0  0  0
   94.3321   -0.0448   -0.2124 H   0  0  0  0  0  0  0  0  0  0  0  0
   94.3129   -2.5268   -0.9573 H   0  0  0  0  0  0  0  0  0  0  0  0
   92.3746   -4.3028   -1.5936 H   0  0  0  0  0  0  0  0  0  0  0  0
   90.9544   -3.0994   -3.9889 H   0  0  0  0  0  0  0  0  0  0  0  0
   89.2003   -2.9386   -4.0820 H   0  0  0  0  0  0  0  0  0  0  0  0
   90.0546   -3.9749   -5.2396 H   0  0  0  0  0  0  0  0  0  0  0  0
   89.9267   -6.2790   -4.8159 H   0  0  0  0  0  0  0  0  0  0  0  0
   90.0489   -9.3000   -2.7028 H   0  0  0  0  0  0  0  0  0  0  0  0
   88.6031   -8.8695   -3.6228 H   0  0  0  0  0  0  0  0  0  0  0  0
   90.1992   -8.6730   -4.3557 H   0  0  0  0  0  0  0  0  0  0  0  0
   89.4770   -7.7899   -0.8369 H   0  0  0  0  0  0  0  0  0  0  0  0
   88.6067   -4.8181    0.6829 H   0  0  0  0  0  0  0  0  0  0  0  0
   89.4283   -6.3523    1.0167 H   0  0  0  0  0  0  0  0  0  0  0  0
   90.3635   -4.8571    0.8343 H   0  0  0  0  0  0  0  0  0  0  0  0
   87.1807   -4.0655   -1.9540 H   0  0  0  0  0  0  0  0  0  0  0  0
   85.3066   -2.2535   -1.2411 H   0  0  0  0  0  0  0  0  0  0  0  0
   85.4010    2.3438    1.2079 H   0  0  0  0  0  0  0  0  0  0  0  0
   87.3445    4.0790    1.9283 H   0  0  0  0  0  0  0  0  0  0  0  0
   90.4665    4.8725   -0.9258 H   0  0  0  0  0  0  0  0  0  0  0  0
   89.5544    6.3893   -1.0312 H   0  0  0  0  0  0  0  0  0  0  0  0
   88.7151    4.8603   -0.7162 H   0  0  0  0  0  0  0  0  0  0  0  0
   89.7123    7.7689    0.8605 H   0  0  0  0  0  0  0  0  0  0  0  0
   89.1718    9.0777    3.0698 H   0  0  0  0  0  0  0  0  0  0  0  0
   89.9600    8.4718    4.5378 H   0  0  0  0  0  0  0  0  0  0  0  0
   90.9332    8.9960    3.1555 H   0  0  0  0  0  0  0  0  0  0  0  0
   90.2419    6.1268    4.7771 H   0  0  0  0  0  0  0  0  0  0  0  0
   91.1457    2.9408    3.8195 H   0  0  0  0  0  0  0  0  0  0  0  0
   89.3919    2.8371    3.9753 H   0  0  0  0  0  0  0  0  0  0  0  0
   90.3246    3.8091    5.1281 H   0  0  0  0  0  0  0  0  0  0  0  0
   92.5246    4.2094    1.3667 H   0  0  0  0  0  0  0  0  0  0  0  0
   94.3938    2.4239    0.5705 H   0  0  0  0  0  0  0  0  0  0  0  0
   55.5393   -0.0809   -0.0203 C   0  0  0  0  0  0  0  0  0  0  0  0
   54.3186   -0.0675   -0.0236 C   0  0  0  0  0  0  0  0  0  0  0  0
   56.8913   -0.0908   -0.0249 C   0  0  0  0  0  0  0  0  0  0  0  0
   58.1121   -0.0970   -0.0221 C   0  0  0  0  0  0  0  0  0  0  0  0
   68.9910    0.0016   -0.0361 C   0  0  0  0  0  0  0  0  0  0  0  0
   67.7693   -0.0065   -0.0311 C   0  0  0  0  0  0  0  0  0  0  0  0
   70.3408    0.0077   -0.0350 C   0  0  0  0  0  0  0  0  0  0  0  0
   71.5625    0.0081   -0.0349 C   0  0  0  0  0  0  0  0  0  0  0  0
   82.4494    0.0765   -0.0243 C   0  0  0  0  0  0  0  0  0  0  0  0
   81.2287    0.0726   -0.0239 C   0  0  0  0  0  0  0  0  0  0  0  0
   83.8016    0.0718   -0.0301 C   0  0  0  0  0  0  0  0  0  0  0  0
   85.0223    0.0607   -0.0363 C   0  0  0  0  0  0  0  0  0  0  0  0
   62.9416   -0.0705   -0.0225 Ni  0  0  0  0  0  0  0  0  0  0  0  0
   59.5192   -0.0965   -0.0207 C   0  0  0  0  0  0  0  0  0  0  0  0
   60.1891    0.1924    1.1706 C   0  0  0  0  0  0  0  0  0  0  0  0
   59.5149    0.4850    2.3960 C   0  0  0  0  0  0  0  0  0  0  0  0
   60.4721    0.6061    3.3473 C   0  0  0  0  0  0  0  0  0  0  0  0
   61.7280    0.3885    2.6973 C   0  0  0  0  0  0  0  0  0  0  0  0
   61.5446    0.1584    1.3529 N   0  0  0  0  0  0  0  0  0  0  0  0
   62.9405    0.3559    3.3682 C   0  0  0  0  0  0  0  0  0  0  0  0
   62.9404    0.5363    4.8476 C   0  0  0  0  0  0  0  0  0  0  0  0
   63.1111    1.8113    5.3944 C   0  0  0  0  0  0  0  0  0  0  0  0
   63.2930    2.9998    4.4884 C   0  0  0  0  0  0  0  0  0  0  0  0
   63.1105    1.9673    6.7756 C   0  0  0  0  0  0  0  0  0  0  0  0
   62.9427    0.8735    7.6184 C   0  0  0  0  0  0  0  0  0  0  0  0
   62.9652    1.0508    9.1126 C   0  0  0  0  0  0  0  0  0  0  0  0
   62.7743   -0.3907    7.0627 C   0  0  0  0  0  0  0  0  0  0  0  0
   62.7704   -0.5704    5.6845 C   0  0  0  0  0  0  0  0  0  0  0  0
   62.5845   -1.9410    5.0902 C   0  0  0  0  0  0  0  0  0  0  0  0
   64.1540    0.1672    2.7263 C   0  0  0  0  0  0  0  0  0  0  0  0
   65.4108    0.1320    3.4092 C   0  0  0  0  0  0  0  0  0  0  0  0
   66.3690    0.0311    2.4564 C   0  0  0  0  0  0  0  0  0  0  0  0
   64.3386    0.0625    1.3660 N   0  0  0  0  0  0  0  0  0  0  0  0
   65.6942    0.0023    1.1975 C   0  0  0  0  0  0  0  0  0  0  0  0
   66.3648   -0.0238   -0.0288 C   0  0  0  0  0  0  0  0  0  0  0  0
   65.6914   -0.0696   -1.2530 C   0  0  0  0  0  0  0  0  0  0  0  0
   66.3622   -0.0820   -2.5143 C   0  0  0  0  0  0  0  0  0  0  0  0
   65.4040   -0.2153   -3.4631 C   0  0  0  0  0  0  0  0  0  0  0  0
   64.1513   -0.2855   -2.7753 C   0  0  0  0  0  0  0  0  0  0  0  0
   64.3377   -0.1701   -1.4162 N   0  0  0  0  0  0  0  0  0  0  0  0
   62.9412   -0.5099   -3.4121 C   0  0  0  0  0  0  0  0  0  0  0  0
   62.9407   -0.6920   -4.8913 C   0  0  0  0  0  0  0  0  0  0  0  0
   62.7313    0.4087   -5.7272 C   0  0  0  0  0  0  0  0  0  0  0  0
   62.5037    1.7725   -5.1318 C   0  0  0  0  0  0  0  0  0  0  0  0
   62.7347    0.2293   -7.1054 C   0  0  0  0  0  0  0  0  0  0  0  0
   62.9415   -1.0287   -7.6620 C   0  0  0  0  0  0  0  0  0  0  0  0
   62.9630   -1.2061   -9.1563 C   0  0  0  0  0  0  0  0  0  0  0  0
   63.1487   -2.1166   -6.8202 C   0  0  0  0  0  0  0  0  0  0  0  0
   63.1505   -1.9607   -5.4390 C   0  0  0  0  0  0  0  0  0  0  0  0
   63.3753   -3.1424   -4.5338 C   0  0  0  0  0  0  0  0  0  0  0  0
   61.7316   -0.5676   -2.7378 C   0  0  0  0  0  0  0  0  0  0  0  0
   60.4786   -0.8112   -3.3845 C   0  0  0  0  0  0  0  0  0  0  0  0
   59.5206   -0.6959   -2.4333 C   0  0  0  0  0  0  0  0  0  0  0  0
   60.1916   -0.3834   -1.2111 C   0  0  0  0  0  0  0  0  0  0  0  0
   61.5461   -0.3317   -1.3947 N   0  0  0  0  0  0  0  0  0  0  0  0
   58.4455    0.5744    2.4993 H   0  0  0  0  0  0  0  0  0  0  0  0
   60.3548    0.8185    4.3977 H   0  0  0  0  0  0  0  0  0  0  0  0
   64.2022    2.8869    3.8947 H   0  0  0  0  0  0  0  0  0  0  0  0
   63.3654    3.9213    5.0651 H   0  0  0  0  0  0  0  0  0  0  0  0
   62.4520    3.0830    3.7975 H   0  0  0  0  0  0  0  0  0  0  0  0
   63.2416    2.9572    7.2002 H   0  0  0  0  0  0  0  0  0  0  0  0
   63.9815    0.9104    9.4880 H   0  0  0  0  0  0  0  0  0  0  0  0
   62.3204    0.3191    9.6001 H   0  0  0  0  0  0  0  0  0  0  0  0
   62.6362    2.0523    9.3906 H   0  0  0  0  0  0  0  0  0  0  0  0
   62.6425   -1.2495    7.7127 H   0  0  0  0  0  0  0  0  0  0  0  0
   61.6770   -1.9706    4.4841 H   0  0  0  0  0  0  0  0  0  0  0  0
   63.4264   -2.1914    4.4421 H   0  0  0  0  0  0  0  0  0  0  0  0
   62.5068   -2.6967    5.8713 H   0  0  0  0  0  0  0  0  0  0  0  0
   65.5281    0.1846    4.4795 H   0  0  0  0  0  0  0  0  0  0  0  0
   67.4393   -0.0154    2.5779 H   0  0  0  0  0  0  0  0  0  0  0  0
   67.4301   -0.0036   -2.6401 H   0  0  0  0  0  0  0  0  0  0  0  0
   65.5189   -0.2679   -4.5336 H   0  0  0  0  0  0  0  0  0  0  0  0
   61.5930    1.7750   -4.5296 H   0  0  0  0  0  0  0  0  0  0  0  0
   62.4074    2.5268   -5.9122 H   0  0  0  0  0  0  0  0  0  0  0  0
   63.3352    2.0461   -4.4797 H   0  0  0  0  0  0  0  0  0  0  0  0
   62.5724    1.0834   -7.7547 H   0  0  0  0  0  0  0  0  0  0  0  0
   62.6350   -2.2081   -9.4336 H   0  0  0  0  0  0  0  0  0  0  0  0
   63.9791   -1.0651   -9.5323 H   0  0  0  0  0  0  0  0  0  0  0  0
   62.3171   -0.4753   -9.6436 H   0  0  0  0  0  0  0  0  0  0  0  0
   63.3100   -3.1016   -7.2458 H   0  0  0  0  0  0  0  0  0  0  0  0
   63.4693   -4.0621   -5.1103 H   0  0  0  0  0  0  0  0  0  0  0  0
   62.5439   -3.2493   -3.8348 H   0  0  0  0  0  0  0  0  0  0  0  0
   64.2866   -3.0024   -3.9489 H   0  0  0  0  0  0  0  0  0  0  0  0
   60.3638   -1.0346   -4.4328 H   0  0  0  0  0  0  0  0  0  0  0  0
   58.4526   -0.8026   -2.5347 H   0  0  0  0  0  0  0  0  0  0  0  0
   76.3947    0.0120   -0.0255 Ni  0  0  0  0  0  0  0  0  0  0  0  0
   72.9673    0.0079   -0.0322 C   0  0  0  0  0  0  0  0  0  0  0  0
   73.6358    0.1963    1.1807 C   0  0  0  0  0  0  0  0  0  0  0  0
   72.9557    0.3912    2.4219 C   0  0  0  0  0  0  0  0  0  0  0  0
   73.9113    0.4926    3.3769 C   0  0  0  0  0  0  0  0  0  0  0  0
   75.1717    0.3611    2.7127 C   0  0  0  0  0  0  0  0  0  0  0  0
   74.9915    0.1891    1.3587 N   0  0  0  0  0  0  0  0  0  0  0  0
   76.3879    0.3873    3.3759 C   0  0  0  0  0  0  0  0  0  0  0  0
   76.3836    0.5377    4.8588 C   0  0  0  0  0  0  0  0  0  0  0  0
   76.4867    1.8080    5.4326 C   0  0  0  0  0  0  0  0  0  0  0  0
   76.6049    3.0235    4.5523 C   0  0  0  0  0  0  0  0  0  0  0  0
   76.4774    1.9344    6.8169 C   0  0  0  0  0  0  0  0  0  0  0  0
   76.3663    0.8159    7.6361 C   0  0  0  0  0  0  0  0  0  0  0  0
   76.3760    0.9615    9.1339 C   0  0  0  0  0  0  0  0  0  0  0  0
   76.2660   -0.4436    7.0535 C   0  0  0  0  0  0  0  0  0  0  0  0
   76.2728   -0.5940    5.6720 C   0  0  0  0  0  0  0  0  0  0  0  0
   76.1607   -1.9597    5.0485 C   0  0  0  0  0  0  0  0  0  0  0  0
   77.6072    0.2835    2.7256 C   0  0  0  0  0  0  0  0  0  0  0  0
   78.8657    0.3207    3.4055 C   0  0  0  0  0  0  0  0  0  0  0  0
   79.8253    0.2394    2.4528 C   0  0  0  0  0  0  0  0  0  0  0  0
   77.7922    0.1666    1.3669 N   0  0  0  0  0  0  0  0  0  0  0  0
   79.1496    0.1474    1.1972 C   0  0  0  0  0  0  0  0  0  0  0  0
   79.8211    0.0590   -0.0240 C   0  0  0  0  0  0  0  0  0  0  0  0
   79.1533   -0.0558   -1.2451 C   0  0  0  0  0  0  0  0  0  0  0  0
   79.8325   -0.1473   -2.4989 C   0  0  0  0  0  0  0  0  0  0  0  0
   78.8770   -0.2816   -3.4496 C   0  0  0  0  0  0  0  0  0  0  0  0
   77.6174   -0.2708   -2.7710 C   0  0  0  0  0  0  0  0  0  0  0  0
   77.7974   -0.1207   -1.4148 N   0  0  0  0  0  0  0  0  0  0  0  0
   76.4020   -0.4181   -3.4204 C   0  0  0  0  0  0  0  0  0  0  0  0
   76.4058   -0.6110   -4.8983 C   0  0  0  0  0  0  0  0  0  0  0  0
   76.2882    0.4940   -5.7464 C   0  0  0  0  0  0  0  0  0  0  0  0
   76.1582    1.8769   -5.1659 C   0  0  0  0  0  0  0  0  0  0  0  0
   76.2915    0.3011   -7.1227 C   0  0  0  0  0  0  0  0  0  0  0  0
   76.4085   -0.9744   -7.6658 C   0  0  0  0  0  0  0  0  0  0  0  0
   76.4299   -1.1661   -9.1582 C   0  0  0  0  0  0  0  0  0  0  0  0
   76.5259   -2.0660   -6.8121 C   0  0  0  0  0  0  0  0  0  0  0  0
   76.5256   -1.8970   -5.4323 C   0  0  0  0  0  0  0  0  0  0  0  0
   76.6517   -3.0833   -4.5142 C   0  0  0  0  0  0  0  0  0  0  0  0
   75.1836   -0.3906   -2.7615 C   0  0  0  0  0  0  0  0  0  0  0  0
   73.9261   -0.5369   -3.4282 C   0  0  0  0  0  0  0  0  0  0  0  0
   72.9662   -0.4102   -2.4806 C   0  0  0  0  0  0  0  0  0  0  0  0
   73.6409   -0.1913   -1.2405 C   0  0  0  0  0  0  0  0  0  0  0  0
   74.9974   -0.1895   -1.4123 N   0  0  0  0  0  0  0  0  0  0  0  0
   71.8842    0.4384    2.5316 H   0  0  0  0  0  0  0  0  0  0  0  0
   73.7903    0.6436    4.4373 H   0  0  0  0  0  0  0  0  0  0  0  0
   77.5170    2.9706    3.9547 H   0  0  0  0  0  0  0  0  0  0  0  0
   76.6316    3.9349    5.1488 H   0  0  0  0  0  0  0  0  0  0  0  0
   75.7588    3.0784    3.8649 H   0  0  0  0  0  0  0  0  0  0  0  0
   76.5555    2.9207    7.2624 H   0  0  0  0  0  0  0  0  0  0  0  0
   77.3931    0.8365    9.5128 H   0  0  0  0  0  0  0  0  0  0  0  0
   75.7460    0.2041    9.6011 H   0  0  0  0  0  0  0  0  0  0  0  0
   76.0215    1.9485    9.4315 H   0  0  0  0  0  0  0  0  0  0  0  0
   76.1793   -1.3216    7.6852 H   0  0  0  0  0  0  0  0  0  0  0  0
   75.2528   -2.0271    4.4460 H   0  0  0  0  0  0  0  0  0  0  0  0
   77.0116   -2.1481    4.3914 H   0  0  0  0  0  0  0  0  0  0  0  0
   76.1298   -2.7353    5.8131 H   0  0  0  0  0  0  0  0  0  0  0  0
   78.9824    0.4006    4.4741 H   0  0  0  0  0  0  0  0  0  0  0  0
   80.8967    0.2393    2.5720 H   0  0  0  0  0  0  0  0  0  0  0  0
   80.9034   -0.1135   -2.6183 H   0  0  0  0  0  0  0  0  0  0  0  0
   78.9971   -0.3798   -4.5164 H   0  0  0  0  0  0  0  0  0  0  0  0
   75.2489    1.9517   -4.5664 H   0  0  0  0  0  0  0  0  0  0  0  0
   76.1186    2.6277   -5.9544 H   0  0  0  0  0  0  0  0  0  0  0  0
   77.0060    2.0964   -4.5144 H   0  0  0  0  0  0  0  0  0  0  0  0
   76.1997    1.1584   -7.7816 H   0  0  0  0  0  0  0  0  0  0  0  0
   76.0763   -2.1615   -9.4279 H   0  0  0  0  0  0  0  0  0  0  0  0
   77.4502   -1.0544   -9.5326 H   0  0  0  0  0  0  0  0  0  0  0  0
   75.8046   -0.4229   -9.6538 H   0  0  0  0  0  0  0  0  0  0  0  0
   76.6172   -3.0645   -7.2267 H   0  0  0  0  0  0  0  0  0  0  0  0
   76.6971   -4.0119   -5.0823 H   0  0  0  0  0  0  0  0  0  0  0  0
   75.7994   -3.1292   -3.8338 H   0  0  0  0  0  0  0  0  0  0  0  0
   77.5567   -2.9991   -3.9095 H   0  0  0  0  0  0  0  0  0  0  0  0
   73.8099   -0.7118   -4.4855 H   0  0  0  0  0  0  0  0  0  0  0  0
   71.8951   -0.4577   -2.5942 H   0  0  0  0  0  0  0  0  0  0  0  0
  2  3  4  0  0  0  0
  3  4  4  0  0  0  0
  4  5  2  0  0  0  0
  5  6  4  0  0  0  0
  1  7  1  0  0  0  0
  3  7  4  0  0  0  0
  6  7  4  0  0  0  0
  6  8  4  0  0  0  0
  8  9  1  0  0  0  0
  9 10  4  0  0  0  0
 10 11  1  0  0  0  0
 10 12  4  0  0  0  0
 12 13  4  0  0  0  0
 13 14  1  0  0  0  0
 13 15  4  0  0  0  0
  9 16  4  0  0  0  0
 15 16  4  0  0  0  0
 16 17  1  0  0  0  0
  8 18  4  0  0  0  0
 18 19  4  0  0  0  0
 19 20  2  0  0  0  0
  1 21  1  0  0  0  0
 18 21  4  0  0  0  0
 20 22  4  0  0  0  0
 21 22  4  0  0  0  0
 22 23  4  0  0  0  0
 23 24  4  0  0  0  0
 24 25  4  0  0  0  0
 25 26  2  0  0  0  0
 26 27  4  0  0  0  0
  1 28  1  0  0  0  0
 24 28  4  0  0  0  0
 27 28  4  0  0  0  0
 27 29  4  0  0  0  0
 29 30  1  0  0  0  0
 30 31  4  0  0  0  0
 31 32  1  0  0  0  0
 31 33  4  0  0  0  0
 33 34  4  0  0  0  0
 34 35  1  0  0  0  0
 34 36  4  0  0  0  0
 30 37  4  0  0  0  0
 36 37  4  0  0  0  0
 37 38  1  0  0  0  0
 29 39  4  0  0  0  0
 39 40  4  0  0  0  0
 40 41  2  0  0  0  0
  2 42  4  0  0  0  0
 41 42  4  0  0  0  0
  1 43  1  0  0  0  0
 39 43  4  0  0  0  0
 42 43  4  0  0  0  0
  2 44  1  0  0  0  0
  4 45  1  0  0  0  0
  5 46  1  0  0  0  0
 11 47  1  0  0  0  0
 11 48  1  0  0  0  0
 11 49  1  0  0  0  0
 12 50  1  0  0  0  0
 14 51  1  0  0  0  0
 14 52  1  0  0  0  0
 14 53  1  0  0  0  0
 15 54  1  0  0  0  0
 17 55  1  0  0  0  0
 17 56  1  0  0  0  0
 17 57  1  0  0  0  0
 19 58  1  0  0  0  0
 20 59  1  0  0  0  0
 25 60  1  0  0  0  0
 26 61  1  0  0  0  0
 32 62  1  0  0  0  0
 32 63  1  0  0  0  0
 32 64  1  0  0  0  0
 33 65  1  0  0  0  0
 35 66  1  0  0  0  0
 35 67  1  0  0  0  0
 35 68  1  0  0  0  0
 36 69  1  0  0  0  0
 38 70  1  0  0  0  0
 38 71  1  0  0  0  0
 38 72  1  0  0  0  0
 40 73  1  0  0  0  0
 41 74  1  0  0  0  0
 76 77  4  0  0  0  0
 77 78  4  0  0  0  0
 78 79  2  0  0  0  0
 79 80  4  0  0  0  0
 75 81  1  0  0  0  0
 77 81  4  0  0  0  0
 80 81  4  0  0  0  0
 80 82  4  0  0  0  0
 82 83  1  0  0  0  0
 83 84  4  0  0  0  0
 84 85  1  0  0  0  0
 84 86  4  0  0  0  0
 86 87  4  0  0  0  0
 87 88  1  0  0  0  0
 87 89  4  0  0  0  0
 83 90  4  0  0  0  0
 89 90  4  0  0  0  0
 90 91  1  0  0  0  0
 82 92  4  0  0  0  0
 92 93  4  0  0  0  0
 93 94  2  0  0  0  0
 75 95  1  0  0  0  0
 92 95  4  0  0  0  0
 94 96  4  0  0  0  0
 95 96  4  0  0  0  0
 96 97  4  0  0  0  0
 97 98  4  0  0  0  0
 98 99  4  0  0  0  0
 99100  2  0  0  0  0
100101  4  0  0  0  0
 75102  1  0  0  0  0
 98102  4  0  0  0  0
101102  4  0  0  0  0
101103  4  0  0  0  0
103104  1  0  0  0  0
104105  4  0  0  0  0
105106  1  0  0  0  0
105107  4  0  0  0  0
107108  4  0  0  0  0
108109  1  0  0  0  0
108110  4  0  0  0  0
104111  4  0  0  0  0
110111  4  0  0  0  0
111112  1  0  0  0  0
103113  4  0  0  0  0
113114  4  0  0  0  0
114115  2  0  0  0  0
 76116  4  0  0  0  0
115116  4  0  0  0  0
 75117  1  0  0  0  0
113117  4  0  0  0  0
116117  4  0  0  0  0
 76118  1  0  0  0  0
 78119  1  0  0  0  0
 79120  1  0  0  0  0
 85121  1  0  0  0  0
 85122  1  0  0  0  0
 85123  1  0  0  0  0
 86124  1  0  0  0  0
 88125  1  0  0  0  0
 88126  1  0  0  0  0
 88127  1  0  0  0  0
 89128  1  0  0  0  0
 91129  1  0  0  0  0
 91130  1  0  0  0  0
 91131  1  0  0  0  0
 93132  1  0  0  0  0
 94133  1  0  0  0  0
 99134  1  0  0  0  0
100135  1  0  0  0  0
106136  1  0  0  0  0
106137  1  0  0  0  0
106138  1  0  0  0  0
107139  1  0  0  0  0
109140  1  0  0  0  0
109141  1  0  0  0  0
109142  1  0  0  0  0
110143  1  0  0  0  0
112144  1  0  0  0  0
112145  1  0  0  0  0
112146  1  0  0  0  0
114147  1  0  0  0  0
115148  1  0  0  0  0
 23150  4  0  0  0  0
149150  3  0  0  0  0
149151  4  0  0  0  0
151152  3  0  0  0  0
153154  3  0  0  0  0
153155  4  0  0  0  0
155156  3  0  0  0  0
157158  3  0  0  0  0
157159  4  0  0  0  0
 97160  4  0  0  0  0
159160  3  0  0  0  0
152162  4  0  0  0  0
162163  4  0  0  0  0
163164  4  0  0  0  0
164165  2  0  0  0  0
165166  4  0  0  0  0
161167  1  0  0  0  0
163167  4  0  0  0  0
166167  4  0  0  0  0
166168  4  0  0  0  0
168169  1  0  0  0  0
169170  4  0  0  0  0
170171  1  0  0  0  0
170172  4  0  0  0  0
172173  4  0  0  0  0
173174  1  0  0  0  0
173175  4  0  0  0  0
169176  4  0  0  0  0
175176  4  0  0  0  0
176177  1  0  0  0  0
168178  4  0  0  0  0
178179  4  0  0  0  0
179180  2  0  0  0  0
161181  1  0  0  0  0
178181  4  0  0  0  0
180182  4  0  0  0  0
181182  4  0  0  0  0
154183  4  0  0  0  0
182183  4  0  0  0  0
183184  4  0  0  0  0
184185  4  0  0  0  0
185186  2  0  0  0  0
186187  4  0  0  0  0
161188  1  0  0  0  0
184188  4  0  0  0  0
187188  4  0  0  0  0
187189  4  0  0  0  0
189190  1  0  0  0  0
190191  4  0  0  0  0
191192  1  0  0  0  0
191193  4  0  0  0  0
193194  4  0  0  0  0
194195  1  0  0  0  0
194196  4  0  0  0  0
190197  4  0  0  0  0
196197  4  0  0  0  0
197198  1  0  0  0  0
189199  4  0  0  0  0
199200  4  0  0  0  0
200201  2  0  0  0  0
162202  4  0  0  0  0
201202  4  0  0  0  0
161203  1  0  0  0  0
199203  4  0  0  0  0
202203  4  0  0  0  0
164204  1  0  0  0  0
165205  1  0  0  0  0
171206  1  0  0  0  0
171207  1  0  0  0  0
171208  1  0  0  0  0
172209  1  0  0  0  0
174210  1  0  0  0  0
174211  1  0  0  0  0
174212  1  0  0  0  0
175213  1  0  0  0  0
177214  1  0  0  0  0
177215  1  0  0  0  0
177216  1  0  0  0  0
179217  1  0  0  0  0
180218  1  0  0  0  0
185219  1  0  0  0  0
186220  1  0  0  0  0
192221  1  0  0  0  0
192222  1  0  0  0  0
192223  1  0  0  0  0
193224  1  0  0  0  0
195225  1  0  0  0  0
195226  1  0  0  0  0
195227  1  0  0  0  0
196228  1  0  0  0  0
198229  1  0  0  0  0
198230  1  0  0  0  0
198231  1  0  0  0  0
200232  1  0  0  0  0
201233  1  0  0  0  0
156235  4  0  0  0  0
235236  4  0  0  0  0
236237  4  0  0  0  0
237238  2  0  0  0  0
238239  4  0  0  0  0
234240  1  0  0  0  0
236240  4  0  0  0  0
239240  4  0  0  0  0
239241  4  0  0  0  0
241242  1  0  0  0  0
242243  4  0  0  0  0
243244  1  0  0  0  0
243245  4  0  0  0  0
245246  4  0  0  0  0
246247  1  0  0  0  0
246248  4  0  0  0  0
242249  4  0  0  0  0
248249  4  0  0  0  0
249250  1  0  0  0  0
241251  4  0  0  0  0
251252  4  0  0  0  0
252253  2  0  0  0  0
234254  1  0  0  0  0
251254  4  0  0  0  0
253255  4  0  0  0  0
254255  4  0  0  0  0
158256  4  0  0  0  0
255256  4  0  0  0  0
256257  4  0  0  0  0
257258  4  0  0  0  0
258259  2  0  0  0  0
259260  4  0  0  0  0
234261  1  0  0  0  0
257261  4  0  0  0  0
260261  4  0  0  0  0
260262  4  0  0  0  0
262263  1  0  0  0  0
263264  4  0  0  0  0
264265  1  0  0  0  0
264266  4  0  0  0  0
266267  4  0  0  0  0
267268  1  0  0  0  0
267269  4  0  0  0  0
263270  4  0  0  0  0
269270  4  0  0  0  0
270271  1  0  0  0  0
262272  4  0  0  0  0
272273  4  0  0  0  0
273274  2  0  0  0  0
235275  4  0  0  0  0
274275  4  0  0  0  0
234276  1  0  0  0  0
272276  4  0  0  0  0
275276  4  0  0  0  0
237277  1  0  0  0  0
238278  1  0  0  0  0
244279  1  0  0  0  0
244280  1  0  0  0  0
244281  1  0  0  0  0
245282  1  0  0  0  0
247283  1  0  0  0  0
247284  1  0  0  0  0
247285  1  0  0  0  0
248286  1  0  0  0  0
250287  1  0  0  0  0
250288  1  0  0  0  0
250289  1  0  0  0  0
252290  1  0  0  0  0
253291  1  0  0  0  0
258292  1  0  0  0  0
259293  1  0  0  0  0
265294  1  0  0  0  0
265295  1  0  0  0  0
265296  1  0  0  0  0
266297  1  0  0  0  0
268298  1  0  0  0  0
268299  1  0  0  0  0
268300  1  0  0  0  0
269301  1  0  0  0  0
271302  1  0  0  0  0
271303  1  0  0  0  0
271304  1  0  0  0  0
273305  1  0  0  0  0
274306  1  0  0  0  0
M  END
