 xtb: 6.5.1 (b24c23e)
          07302202253D

112131  0     0  0            999 V2000
   12.3747   -0.0525   -0.0112 Ni  0  0  0  0  0  0  0  0  0  0  0  0
    8.9796   -0.0720   -0.0577 C   0  0  0  0  0  0  0  0  0  0  0  0
    9.6332   -1.2862   -0.0366 C   0  0  0  0  0  0  0  0  0  0  0  0
    8.9541   -2.5458   -0.0196 C   0  0  0  0  0  0  0  0  0  0  0  0
    9.9074   -3.4989    0.0980 C   0  0  0  0  0  0  0  0  0  0  0  0
   11.1698   -2.8202    0.1423 C   0  0  0  0  0  0  0  0  0  0  0  0
   10.9918   -1.4628    0.0456 N   0  0  0  0  0  0  0  0  0  0  0  0
   12.3846   -3.4618    0.3426 C   0  0  0  0  0  0  0  0  0  0  0  0
   12.3888   -4.9355    0.5074 C   0  0  0  0  0  0  0  0  0  0  0  0
   12.7507   -5.5256    1.7171 C   0  0  0  0  0  0  0  0  0  0  0  0
   12.7353   -6.9074    1.8249 C   0  0  0  0  0  0  0  0  0  0  0  0
   12.3941   -7.7083    0.8206 N   0  0  0  0  0  0  0  0  0  0  0  0
   12.0507   -7.1529   -0.3370 C   0  0  0  0  0  0  0  0  0  0  0  0
   12.0300   -5.7819   -0.5403 C   0  0  0  0  0  0  0  0  0  0  0  0
   13.5955   -2.7855    0.3929 C   0  0  0  0  0  0  0  0  0  0  0  0
   14.8595   -3.4364    0.5610 C   0  0  0  0  0  0  0  0  0  0  0  0
   15.8102   -2.4776    0.4559 C   0  0  0  0  0  0  0  0  0  0  0  0
   13.7714   -1.4341    0.1969 N   0  0  0  0  0  0  0  0  0  0  0  0
   15.1261   -1.2460    0.2202 C   0  0  0  0  0  0  0  0  0  0  0  0
   15.7901   -0.0384   -0.0100 C   0  0  0  0  0  0  0  0  0  0  0  0
   15.1148    1.1650   -0.2298 C   0  0  0  0  0  0  0  0  0  0  0  0
   15.7865    2.3990   -0.4867 C   0  0  0  0  0  0  0  0  0  0  0  0
   14.8286    3.3527   -0.5713 C   0  0  0  0  0  0  0  0  0  0  0  0
   13.5737    2.6979   -0.3573 C   0  0  0  0  0  0  0  0  0  0  0  0
   13.7598    1.3455   -0.1797 N   0  0  0  0  0  0  0  0  0  0  0  0
   12.3555    3.3628   -0.3169 C   0  0  0  0  0  0  0  0  0  0  0  0
   12.3479    4.8382   -0.4498 C   0  0  0  0  0  0  0  0  0  0  0  0
   11.7032    5.4643   -1.5159 C   0  0  0  0  0  0  0  0  0  0  0  0
   11.7240    6.8476   -1.5997 C   0  0  0  0  0  0  0  0  0  0  0  0
   12.3306    7.6183   -0.7028 N   0  0  0  0  0  0  0  0  0  0  0  0
   12.9462    7.0294    0.3173 C   0  0  0  0  0  0  0  0  0  0  0  0
   12.9844    5.6541    0.4846 C   0  0  0  0  0  0  0  0  0  0  0  0
   11.1431    2.7026   -0.1664 C   0  0  0  0  0  0  0  0  0  0  0  0
    9.8752    3.3680   -0.0911 C   0  0  0  0  0  0  0  0  0  0  0  0
    8.9291    2.4024   -0.0295 C   0  0  0  0  0  0  0  0  0  0  0  0
    9.6199    1.1494   -0.0520 C   0  0  0  0  0  0  0  0  0  0  0  0
   10.9778    1.3415   -0.1069 N   0  0  0  0  0  0  0  0  0  0  0  0
    7.8959   -0.0780   -0.0690 H   0  0  0  0  0  0  0  0  0  0  0  0
    7.8837   -2.6635   -0.0778 H   0  0  0  0  0  0  0  0  0  0  0  0
    9.7803   -4.5672    0.1627 H   0  0  0  0  0  0  0  0  0  0  0  0
   13.0270   -4.9108    2.5654 H   0  0  0  0  0  0  0  0  0  0  0  0
   13.0085   -7.3911    2.7581 H   0  0  0  0  0  0  0  0  0  0  0  0
   11.7798   -7.8337   -1.1387 H   0  0  0  0  0  0  0  0  0  0  0  0
   11.7523   -5.3731   -1.5044 H   0  0  0  0  0  0  0  0  0  0  0  0
   14.9920   -4.4936    0.7224 H   0  0  0  0  0  0  0  0  0  0  0  0
   16.8814   -2.5802    0.5199 H   0  0  0  0  0  0  0  0  0  0  0  0
   16.8545    2.5055   -0.5872 H   0  0  0  0  0  0  0  0  0  0  0  0
   14.9500    4.4054   -0.7674 H   0  0  0  0  0  0  0  0  0  0  0  0
   11.2056    4.8752   -2.2770 H   0  0  0  0  0  0  0  0  0  0  0  0
   11.2319    7.3578   -2.4226 H   0  0  0  0  0  0  0  0  0  0  0  0
   13.4312    7.6859    1.0338 H   0  0  0  0  0  0  0  0  0  0  0  0
   13.4893    5.2182    1.3384 H   0  0  0  0  0  0  0  0  0  0  0  0
    9.7404    4.4373   -0.0827 H   0  0  0  0  0  0  0  0  0  0  0  0
    7.8576    2.5083    0.0296 H   0  0  0  0  0  0  0  0  0  0  0  0
   25.8111    0.0478   -0.0253 Ni  0  0  0  0  0  0  0  0  0  0  0  0
   29.2063    0.0528   -0.0751 C   0  0  0  0  0  0  0  0  0  0  0  0
   28.5527    1.2208   -0.4073 C   0  0  0  0  0  0  0  0  0  0  0  0
   29.2320    2.4310   -0.7567 C   0  0  0  0  0  0  0  0  0  0  0  0
   28.2787    3.3770   -0.9221 C   0  0  0  0  0  0  0  0  0  0  0  0
   27.0163    2.7405   -0.6833 C   0  0  0  0  0  0  0  0  0  0  0  0
   27.1941    1.4136   -0.3809 N   0  0  0  0  0  0  0  0  0  0  0  0
   25.8015    3.4125   -0.6793 C   0  0  0  0  0  0  0  0  0  0  0  0
   25.7974    4.8705   -0.9500 C   0  0  0  0  0  0  0  0  0  0  0  0
   25.4344    5.7866    0.0358 C   0  0  0  0  0  0  0  0  0  0  0  0
   25.4502    7.1402   -0.2625 C   0  0  0  0  0  0  0  0  0  0  0  0
   25.7929    7.6148   -1.4557 N   0  0  0  0  0  0  0  0  0  0  0  0
   26.1373    6.7471   -2.4016 C   0  0  0  0  0  0  0  0  0  0  0  0
   26.1576    5.3762   -2.1979 C   0  0  0  0  0  0  0  0  0  0  0  0
   24.5904    2.7802   -0.4350 C   0  0  0  0  0  0  0  0  0  0  0  0
   23.3264    3.4517   -0.4648 C   0  0  0  0  0  0  0  0  0  0  0  0
   22.3757    2.5039   -0.2861 C   0  0  0  0  0  0  0  0  0  0  0  0
   24.4144    1.4303   -0.2285 N   0  0  0  0  0  0  0  0  0  0  0  0
   23.0598    1.2572   -0.1517 C   0  0  0  0  0  0  0  0  0  0  0  0
   22.3957    0.0351   -0.0191 C   0  0  0  0  0  0  0  0  0  0  0  0
   23.0708   -1.1801    0.1216 C   0  0  0  0  0  0  0  0  0  0  0  0
   22.3988   -2.4352    0.2361 C   0  0  0  0  0  0  0  0  0  0  0  0
   23.3568   -3.3725    0.4318 C   0  0  0  0  0  0  0  0  0  0  0  0
   24.6119   -2.6842    0.4443 C   0  0  0  0  0  0  0  0  0  0  0  0
   24.4259   -1.3386    0.2208 N   0  0  0  0  0  0  0  0  0  0  0  0
   25.8301   -3.3093    0.6741 C   0  0  0  0  0  0  0  0  0  0  0  0
   25.8374   -4.7596    0.9757 C   0  0  0  0  0  0  0  0  0  0  0  0
   26.4808   -5.6691    0.1372 C   0  0  0  0  0  0  0  0  0  0  0  0
   26.4596   -7.0169    0.4594 C   0  0  0  0  0  0  0  0  0  0  0  0
   25.8539   -7.4932    1.5423 N   0  0  0  0  0  0  0  0  0  0  0  0
   25.2396   -6.6327    2.3477 C   0  0  0  0  0  0  0  0  0  0  0  0
   25.2019   -5.2681    2.1077 C   0  0  0  0  0  0  0  0  0  0  0  0
   27.0429   -2.6344    0.6245 C   0  0  0  0  0  0  0  0  0  0  0  0
   28.3108   -3.2498    0.8882 C   0  0  0  0  0  0  0  0  0  0  0  0
   29.2569   -2.3077    0.6673 C   0  0  0  0  0  0  0  0  0  0  0  0
   28.5660   -1.1147    0.2837 C   0  0  0  0  0  0  0  0  0  0  0  0
   27.2081   -1.3144    0.2873 N   0  0  0  0  0  0  0  0  0  0  0  0
   30.2900    0.0554   -0.0872 H   0  0  0  0  0  0  0  0  0  0  0  0
   30.3024    2.5267   -0.8459 H   0  0  0  0  0  0  0  0  0  0  0  0
   28.4060    4.4179   -1.1711 H   0  0  0  0  0  0  0  0  0  0  0  0
   25.1570    5.4447    1.0257 H   0  0  0  0  0  0  0  0  0  0  0  0
   25.1762    7.8741    0.4898 H   0  0  0  0  0  0  0  0  0  0  0  0
   26.4094    7.1656   -3.3662 H   0  0  0  0  0  0  0  0  0  0  0  0
   26.4363    4.7049   -3.0015 H   0  0  0  0  0  0  0  0  0  0  0  0
   23.1939    4.5101   -0.6189 H   0  0  0  0  0  0  0  0  0  0  0  0
   21.3044    2.6208   -0.2553 H   0  0  0  0  0  0  0  0  0  0  0  0
   21.3308   -2.5662    0.1722 H   0  0  0  0  0  0  0  0  0  0  0  0
   23.2351   -4.4366    0.5508 H   0  0  0  0  0  0  0  0  0  0  0  0
   26.9775   -5.3270   -0.7630 H   0  0  0  0  0  0  0  0  0  0  0  0
   26.9507   -7.7446   -0.1800 H   0  0  0  0  0  0  0  0  0  0  0  0
   24.7552   -7.0521    3.2246 H   0  0  0  0  0  0  0  0  0  0  0  0
   24.6981   -4.6025    2.7985 H   0  0  0  0  0  0  0  0  0  0  0  0
   28.4458   -4.2710    1.2053 H   0  0  0  0  0  0  0  0  0  0  0  0
   30.3285   -2.3922    0.7539 H   0  0  0  0  0  0  0  0  0  0  0  0
   18.4175   -0.0108   -0.0201 C   0  0  0  0  0  0  0  0  0  0  0  0
   17.1963   -0.0305   -0.0165 C   0  0  0  0  0  0  0  0  0  0  0  0
   19.7683    0.0042   -0.0250 C   0  0  0  0  0  0  0  0  0  0  0  0
   20.9895    0.0258   -0.0243 C   0  0  0  0  0  0  0  0  0  0  0  0
  2  3  4  0  0  0  0
  3  4  4  0  0  0  0
  4  5  2  0  0  0  0
  5  6  4  0  0  0  0
  1  7  1  0  0  0  0
  3  7  4  0  0  0  0
  6  7  4  0  0  0  0
  6  8  4  0  0  0  0
  8  9  1  0  0  0  0
  9 10  4  0  0  0  0
 10 11  4  0  0  0  0
 11 12  4  0  0  0  0
 12 13  4  0  0  0  0
  9 14  4  0  0  0  0
 13 14  4  0  0  0  0
  8 15  4  0  0  0  0
 15 16  4  0  0  0  0
 16 17  2  0  0  0  0
  1 18  1  0  0  0  0
 15 18  4  0  0  0  0
 17 19  4  0  0  0  0
 18 19  4  0  0  0  0
 19 20  4  0  0  0  0
 20 21  4  0  0  0  0
 21 22  4  0  0  0  0
 22 23  2  0  0  0  0
 23 24  4  0  0  0  0
  1 25  1  0  0  0  0
 21 25  4  0  0  0  0
 24 25  4  0  0  0  0
 24 26  4  0  0  0  0
 26 27  1  0  0  0  0
 27 28  4  0  0  0  0
 28 29  4  0  0  0  0
 29 30  4  0  0  0  0
 30 31  4  0  0  0  0
 27 32  4  0  0  0  0
 31 32  4  0  0  0  0
 26 33  4  0  0  0  0
 33 34  4  0  0  0  0
 34 35  2  0  0  0  0
  2 36  4  0  0  0  0
 35 36  4  0  0  0  0
  1 37  1  0  0  0  0
 33 37  4  0  0  0  0
 36 37  4  0  0  0  0
  2 38  1  0  0  0  0
  4 39  1  0  0  0  0
  5 40  1  0  0  0  0
 10 41  1  0  0  0  0
 11 42  1  0  0  0  0
 13 43  1  0  0  0  0
 14 44  1  0  0  0  0
 16 45  1  0  0  0  0
 17 46  1  0  0  0  0
 22 47  1  0  0  0  0
 23 48  1  0  0  0  0
 28 49  1  0  0  0  0
 29 50  1  0  0  0  0
 31 51  1  0  0  0  0
 32 52  1  0  0  0  0
 34 53  1  0  0  0  0
 35 54  1  0  0  0  0
 56 57  4  0  0  0  0
 57 58  4  0  0  0  0
 58 59  2  0  0  0  0
 59 60  4  0  0  0  0
 55 61  1  0  0  0  0
 57 61  4  0  0  0  0
 60 61  4  0  0  0  0
 60 62  4  0  0  0  0
 62 63  1  0  0  0  0
 63 64  4  0  0  0  0
 64 65  4  0  0  0  0
 65 66  4  0  0  0  0
 66 67  4  0  0  0  0
 63 68  4  0  0  0  0
 67 68  4  0  0  0  0
 62 69  4  0  0  0  0
 69 70  4  0  0  0  0
 70 71  2  0  0  0  0
 55 72  1  0  0  0  0
 69 72  4  0  0  0  0
 71 73  4  0  0  0  0
 72 73  4  0  0  0  0
 73 74  4  0  0  0  0
 74 75  4  0  0  0  0
 75 76  4  0  0  0  0
 76 77  2  0  0  0  0
 77 78  4  0  0  0  0
 55 79  1  0  0  0  0
 75 79  4  0  0  0  0
 78 79  4  0  0  0  0
 78 80  4  0  0  0  0
 80 81  1  0  0  0  0
 81 82  4  0  0  0  0
 82 83  4  0  0  0  0
 83 84  4  0  0  0  0
 84 85  4  0  0  0  0
 81 86  4  0  0  0  0
 85 86  4  0  0  0  0
 80 87  4  0  0  0  0
 87 88  4  0  0  0  0
 88 89  2  0  0  0  0
 56 90  4  0  0  0  0
 89 90  4  0  0  0  0
 55 91  1  0  0  0  0
 87 91  4  0  0  0  0
 90 91  4  0  0  0  0
 56 92  1  0  0  0  0
 58 93  1  0  0  0  0
 59 94  1  0  0  0  0
 64 95  1  0  0  0  0
 65 96  1  0  0  0  0
 67 97  1  0  0  0  0
 68 98  1  0  0  0  0
 70 99  1  0  0  0  0
 71100  1  0  0  0  0
 76101  1  0  0  0  0
 77102  1  0  0  0  0
 82103  1  0  0  0  0
 83104  1  0  0  0  0
 85105  1  0  0  0  0
 86106  1  0  0  0  0
 88107  1  0  0  0  0
 89108  1  0  0  0  0
 20110  4  0  0  0  0
109110  3  0  0  0  0
109111  4  0  0  0  0
 74112  4  0  0  0  0
111112  3  0  0  0  0
M  END
