144

C 10.288151 -0.043662 0.102590
C 11.016749 1.236407 0.615640
C 10.406624 2.342874 1.161118
C 11.428221 3.288928 1.434266
C 12.628152 2.729178 1.041274
N 12.369884 1.459424 0.588571
C 14.051688 3.427474 1.072296
C 15.180009 2.714895 0.806731
C 16.483806 3.343940 0.754810
C 17.384433 2.417905 0.447963
N 15.375505 1.386775 0.531488
C 16.705657 1.144780 0.304655
C 17.372986 -0.000171 0.000047
C 16.598399 -1.381414 -0.109191
C 17.145969 -2.638026 0.063956
C 16.121382 -3.587658 -0.172474
C 14.973806 -2.885136 -0.470941
C 13.561071 -3.510367 -0.833487
C 13.529639 -4.896772 -1.353911
C 13.166325 -5.961368 -0.519422
C 13.146877 -7.275294 -1.003310
C 12.715349 -8.401922 -0.115513
C 13.481863 -7.513297 -2.344013
C 13.864497 -6.460863 -3.187850
C 14.194843 -6.712749 -4.626976
C 13.876502 -5.153624 -2.684988
C 12.435842 -2.764564 -0.679718
C 11.111504 -3.264200 -1.004857
C 10.226960 -2.308353 -0.736464
C 10.951529 -1.163149 -0.242046
N 12.273230 -1.482365 -0.233476
N 15.261111 -1.543313 -0.379112
C 14.090819 4.883237 1.351454
C 14.361453 5.347325 2.644487
C 14.389742 6.720052 2.919955
C 14.726338 7.200503 4.298096
C 14.160098 7.629640 1.877676
C 13.871373 7.180732 0.580847
C 13.653204 8.153496 -0.537373
C 13.848891 5.803932 0.325372
H 9.209398 -0.009642 0.008799
H 9.347346 2.462364 1.328166
H 11.300296 4.277638 1.849520
H 13.071538 0.793924 0.272308
H 16.694994 4.385334 0.920836
H 18.436987 2.603371 0.337197
H 18.172138 -2.852252 0.320727
H 16.209914 -4.663173 -0.132492
H 12.893583 -5.739676 0.511038
H 11.662233 -8.640677 -0.297602
H 13.321072 -9.295456 -0.303191
H 12.837827 -8.142389 0.941867
H 13.444272 -8.527485 -2.733426
H 14.939661 -5.996141 -4.987475
H 14.616485 -7.714227 -4.762143
H 13.292782 -6.623785 -5.239606
H 14.150172 -4.312889 -3.320346
H 10.881512 -4.237986 -1.398268
H 9.162249 -2.368183 -0.870831
H 14.573798 -0.796951 -0.446021
H 14.557252 4.615809 3.426742
H 14.336741 6.513868 5.057255
H 14.281543 8.182280 4.489743
H 15.811243 7.277900 4.412877
H 14.206446 8.697013 2.077023
H 13.238958 9.095236 -0.162266
H 14.601093 8.361990 -1.042066
H 12.941986 7.755131 -1.268310
H 13.648014 5.423993 -0.674960
C 33.088204 -0.014441 0.110514
C 32.359605 -1.378341 -0.093382
C 32.969730 -2.608803 -0.181592
C 31.948134 -3.563248 -0.423789
C 30.748203 -2.881645 -0.480172
N 31.006471 -1.557133 -0.229407
C 29.324667 -3.499956 -0.806165
C 28.196346 -2.750832 -0.675370
C 26.892548 -3.267478 -1.037960
C 25.991921 -2.313283 -0.834959
N 28.000849 -1.465599 -0.241969
C 26.670698 -1.142162 -0.315479
C 26.003369 -0.000171 0.000047
C 26.777956 1.247045 0.603549
C 26.230385 2.244049 1.387792
C 27.254973 3.183034 1.663485
C 28.402549 2.727527 1.051004
C 29.815284 3.450261 1.053976
C 29.846716 4.909656 1.305227
C 30.210029 5.406850 2.563215
C 30.229478 6.785237 2.809382
C 30.661006 7.309036 4.144713
C 29.894492 7.667934 1.772571
C 29.511857 7.185958 0.512659
C 29.181512 8.130357 -0.602079
C 29.499852 5.803757 0.286246
C 30.940512 2.728942 0.809916
C 32.264851 3.324388 0.781722
C 33.149395 2.363892 0.530475
C 32.424826 1.125795 0.378631
N 31.103125 1.396954 0.547288
N 28.115244 1.523125 0.452392
C 29.285535 -4.897325 -1.300670
C 29.014902 -5.951054 -0.419213
C 28.986613 -7.274897 -0.874954
C 28.650016 -8.385742 0.071687
C 29.216257 -7.533346 -2.233961
C 29.504982 -6.490800 -3.126364
C 29.723151 -6.765407 -4.582824
C 29.527463 -5.173541 -2.651310
H 34.166957 0.003581 0.012384
H 34.029008 -2.796313 -0.097791
H 32.076058 -4.626298 -0.564896
H 30.304817 -0.823028 -0.166149
H 26.681360 -4.250088 -1.420769
H 24.939368 -2.417386 -1.024245
H 25.204217 2.299213 1.717613
H 27.166441 4.091021 2.241319
H 30.482772 4.694959 3.340522
H 31.714121 7.607072 4.108183
H 30.055283 8.174979 4.434140
H 30.538528 6.550888 4.926136
H 29.932083 8.739915 1.948850
H 28.436694 7.694031 -1.275210
H 28.759870 9.062930 -0.212803
H 30.083573 8.363068 -1.175730
H 29.226183 5.399161 -0.686800
H 32.494843 4.363523 0.934141
H 34.214106 2.483406 0.444740
H 28.802557 0.912805 0.017601
H 28.819102 -5.714925 0.625432
H 29.039614 -8.176679 1.073726
H 29.094812 -9.329846 -0.258893
H 27.565112 -8.510522 0.131645
H 29.169909 -8.555210 -2.601138
H 30.137396 -7.767638 -4.734849
H 28.775262 -6.690380 -5.123708
H 30.434368 -6.052358 -5.012387
H 29.728341 -4.340301 -3.322673
C 22.292098 0.001140 0.008480
C 21.083158 -0.012315 0.000032
C 19.661629 -0.003496 -0.011951
C 18.449960 0.003943 -0.001088
C 23.708702 -0.005535 0.009013
C 24.929398 0.003943 -0.001088
