 xtb: 6.5.1 (b24c23e)
          07272221433D

144157  0     0  0            999 V2000
   10.3115    0.1289    0.0114 C   0  0  0  0  0  0  0  0  0  0  0  0
   10.9170    1.3266    0.3696 C   0  0  0  0  0  0  0  0  0  0  0  0
   10.2618    2.5316    0.7495 C   0  0  0  0  0  0  0  0  0  0  0  0
   11.2215    3.4683    1.0128 C   0  0  0  0  0  0  0  0  0  0  0  0
   12.4941    2.8686    0.7926 C   0  0  0  0  0  0  0  0  0  0  0  0
   12.2595    1.5764    0.4160 N   0  0  0  0  0  0  0  0  0  0  0  0
   13.7551    3.4565    0.9412 C   0  0  0  0  0  0  0  0  0  0  0  0
   14.9722    2.8014    0.7421 C   0  0  0  0  0  0  0  0  0  0  0  0
   16.2672    3.4501    0.8422 C   0  0  0  0  0  0  0  0  0  0  0  0
   17.1913    2.5010    0.5860 C   0  0  0  0  0  0  0  0  0  0  0  0
   15.1314    1.4896    0.4125 N   0  0  0  0  0  0  0  0  0  0  0  0
   16.4594    1.2773    0.3217 C   0  0  0  0  0  0  0  0  0  0  0  0
   17.1003    0.0571    0.0248 C   0  0  0  0  0  0  0  0  0  0  0  0
   16.4678   -1.1639   -0.2787 C   0  0  0  0  0  0  0  0  0  0  0  0
   17.1155   -2.3989   -0.5456 C   0  0  0  0  0  0  0  0  0  0  0  0
   16.1514   -3.3336   -0.8045 C   0  0  0  0  0  0  0  0  0  0  0  0
   14.8842   -2.6941   -0.7128 C   0  0  0  0  0  0  0  0  0  0  0  0
   13.6249   -3.2739   -0.8985 C   0  0  0  0  0  0  0  0  0  0  0  0
   13.6008   -4.7054   -1.2868 C   0  0  0  0  0  0  0  0  0  0  0  0
   12.9801   -5.6471   -0.4667 C   0  0  0  0  0  0  0  0  0  0  0  0
   12.9646   -6.9917   -0.8207 C   0  0  0  0  0  0  0  0  0  0  0  0
   12.2832   -8.0030    0.0613 C   0  0  0  0  0  0  0  0  0  0  0  0
   13.5711   -7.3919   -2.0078 C   0  0  0  0  0  0  0  0  0  0  0  0
   14.1934   -6.4645   -2.8380 C   0  0  0  0  0  0  0  0  0  0  0  0
   14.8294   -6.9053   -4.1287 C   0  0  0  0  0  0  0  0  0  0  0  0
   14.2058   -5.1229   -2.4719 C   0  0  0  0  0  0  0  0  0  0  0  0
   12.4066   -2.6040   -0.7453 C   0  0  0  0  0  0  0  0  0  0  0  0
   11.1053   -3.2046   -0.9932 C   0  0  0  0  0  0  0  0  0  0  0  0
   10.1883   -2.2506   -0.7343 C   0  0  0  0  0  0  0  0  0  0  0  0
   10.9284   -1.0650   -0.3396 C   0  0  0  0  0  0  0  0  0  0  0  0
   12.2610   -1.3119   -0.3664 N   0  0  0  0  0  0  0  0  0  0  0  0
   15.1275   -1.3866   -0.3831 N   0  0  0  0  0  0  0  0  0  0  0  0
   13.7832    4.8859    1.3406 C   0  0  0  0  0  0  0  0  0  0  0  0
   14.3799    5.2666    2.5412 C   0  0  0  0  0  0  0  0  0  0  0  0
   14.4069    6.6038    2.9249 C   0  0  0  0  0  0  0  0  0  0  0  0
   15.0646    7.0027    4.2183 C   0  0  0  0  0  0  0  0  0  0  0  0
   13.8366    7.5627    2.0942 C   0  0  0  0  0  0  0  0  0  0  0  0
   13.2375    7.1985    0.8913 C   0  0  0  0  0  0  0  0  0  0  0  0
   12.6444    8.2491   -0.0084 C   0  0  0  0  0  0  0  0  0  0  0  0
   13.2116    5.8588    0.5208 C   0  0  0  0  0  0  0  0  0  0  0  0
    9.2261    0.1362    0.0069 H   0  0  0  0  0  0  0  0  0  0  0  0
    9.1920    2.6512    0.8148 H   0  0  0  0  0  0  0  0  0  0  0  0
   11.0680    4.4845    1.3382 H   0  0  0  0  0  0  0  0  0  0  0  0
   12.9870    0.9010    0.2065 H   0  0  0  0  0  0  0  0  0  0  0  0
   16.4252    4.4930    1.0647 H   0  0  0  0  0  0  0  0  0  0  0  0
   18.2652    2.5955    0.5640 H   0  0  0  0  0  0  0  0  0  0  0  0
   18.1835   -2.5454   -0.5326 H   0  0  0  0  0  0  0  0  0  0  0  0
   16.3014   -4.3769   -1.0295 H   0  0  0  0  0  0  0  0  0  0  0  0
   12.5263   -5.3259    0.4644 H   0  0  0  0  0  0  0  0  0  0  0  0
   11.2567   -8.1589   -0.2782 H   0  0  0  0  0  0  0  0  0  0  0  0
   12.8012   -8.9617    0.0236 H   0  0  0  0  0  0  0  0  0  0  0  0
   12.2509   -7.6590    1.0951 H   0  0  0  0  0  0  0  0  0  0  0  0
   13.5621   -8.4404   -2.2874 H   0  0  0  0  0  0  0  0  0  0  0  0
   15.6388   -6.2327   -4.4128 H   0  0  0  0  0  0  0  0  0  0  0  0
   15.2254   -7.9173   -4.0401 H   0  0  0  0  0  0  0  0  0  0  0  0
   14.0863   -6.9007   -4.9294 H   0  0  0  0  0  0  0  0  0  0  0  0
   14.6757   -4.3894   -3.1181 H   0  0  0  0  0  0  0  0  0  0  0  0
   10.9414   -4.2152   -1.3314 H   0  0  0  0  0  0  0  0  0  0  0  0
    9.1132   -2.3104   -0.8029 H   0  0  0  0  0  0  0  0  0  0  0  0
   14.4036   -0.6917   -0.2328 H   0  0  0  0  0  0  0  0  0  0  0  0
   14.8095    4.5087    3.1870 H   0  0  0  0  0  0  0  0  0  0  0  0
   14.8408    6.2802    5.0038 H   0  0  0  0  0  0  0  0  0  0  0  0
   14.7287    7.9887    4.5395 H   0  0  0  0  0  0  0  0  0  0  0  0
   16.1488    7.0355    4.0890 H   0  0  0  0  0  0  0  0  0  0  0  0
   13.8560    8.6073    2.3876 H   0  0  0  0  0  0  0  0  0  0  0  0
   12.2108    9.0605    0.5769 H   0  0  0  0  0  0  0  0  0  0  0  0
   13.4226    8.6717   -0.6482 H   0  0  0  0  0  0  0  0  0  0  0  0
   11.8719    7.8231   -0.6487 H   0  0  0  0  0  0  0  0  0  0  0  0
   12.7599    5.5650   -0.4205 H   0  0  0  0  0  0  0  0  0  0  0  0
   33.0663   -0.1176   -0.0563 C   0  0  0  0  0  0  0  0  0  0  0  0
   32.4605   -1.3298   -0.3611 C   0  0  0  0  0  0  0  0  0  0  0  0
   33.1150   -2.5590   -0.6553 C   0  0  0  0  0  0  0  0  0  0  0  0
   32.1546   -3.4995   -0.9016 C   0  0  0  0  0  0  0  0  0  0  0  0
   30.8821   -2.8731   -0.7744 C   0  0  0  0  0  0  0  0  0  0  0  0
   31.1177   -1.5692   -0.4409 N   0  0  0  0  0  0  0  0  0  0  0  0
   29.6209   -3.4579   -0.9315 C   0  0  0  0  0  0  0  0  0  0  0  0
   28.4036   -2.7957   -0.7598 C   0  0  0  0  0  0  0  0  0  0  0  0
   27.1083   -3.4119   -0.9843 C   0  0  0  0  0  0  0  0  0  0  0  0
   26.1839   -2.4640   -0.7250 C   0  0  0  0  0  0  0  0  0  0  0  0
   28.2440   -1.4952   -0.3882 N   0  0  0  0  0  0  0  0  0  0  0  0
   26.9157   -1.2693   -0.3510 C   0  0  0  0  0  0  0  0  0  0  0  0
   26.2744   -0.0632   -0.0012 C   0  0  0  0  0  0  0  0  0  0  0  0
   26.9071    1.1467    0.3431 C   0  0  0  0  0  0  0  0  0  0  0  0
   26.2600    2.3521    0.7233 C   0  0  0  0  0  0  0  0  0  0  0  0
   27.2248    3.2895    0.9693 C   0  0  0  0  0  0  0  0  0  0  0  0
   28.4919    2.6861    0.7380 C   0  0  0  0  0  0  0  0  0  0  0  0
   29.7517    3.2772    0.8787 C   0  0  0  0  0  0  0  0  0  0  0  0
   29.7759    4.7095    1.2656 C   0  0  0  0  0  0  0  0  0  0  0  0
   30.3710    5.1048    2.4630 C   0  0  0  0  0  0  0  0  0  0  0  0
   30.3851    6.4442    2.8365 C   0  0  0  0  0  0  0  0  0  0  0  0
   31.0363    6.8680    4.1253 C   0  0  0  0  0  0  0  0  0  0  0  0
   29.8052    7.3923    1.9986 C   0  0  0  0  0  0  0  0  0  0  0  0
   29.2098    7.0142    0.7990 C   0  0  0  0  0  0  0  0  0  0  0  0
   28.6041    8.0503   -0.1091 C   0  0  0  0  0  0  0  0  0  0  0  0
   29.1963    5.6710    0.4387 C   0  0  0  0  0  0  0  0  0  0  0  0
   30.9701    2.6196    0.6820 C   0  0  0  0  0  0  0  0  0  0  0  0
   32.2716    3.2608    0.7848 C   0  0  0  0  0  0  0  0  0  0  0  0
   33.1891    2.3075    0.5251 C   0  0  0  0  0  0  0  0  0  0  0  0
   32.4491    1.0875    0.2536 C   0  0  0  0  0  0  0  0  0  0  0  0
   31.1163    1.3146    0.3503 N   0  0  0  0  0  0  0  0  0  0  0  0
   28.2477    1.3891    0.3696 N   0  0  0  0  0  0  0  0  0  0  0  0
   29.5929   -4.8931   -1.3106 C   0  0  0  0  0  0  0  0  0  0  0  0
   29.0225   -5.8331   -0.4546 C   0  0  0  0  0  0  0  0  0  0  0  0
   28.9966   -7.1807   -0.8005 C   0  0  0  0  0  0  0  0  0  0  0  0
   28.3692   -8.1845    0.1288 C   0  0  0  0  0  0  0  0  0  0  0  0
   29.5400   -7.5826   -2.0161 C   0  0  0  0  0  0  0  0  0  0  0  0
   30.1120   -6.6552   -2.8829 C   0  0  0  0  0  0  0  0  0  0  0  0
   30.6747   -7.1009   -4.2057 C   0  0  0  0  0  0  0  0  0  0  0  0
   30.1386   -5.3124   -2.5236 C   0  0  0  0  0  0  0  0  0  0  0  0
   34.1516   -0.1214   -0.0647 H   0  0  0  0  0  0  0  0  0  0  0  0
   34.1849   -2.6939   -0.6678 H   0  0  0  0  0  0  0  0  0  0  0  0
   32.3071   -4.5389   -1.1433 H   0  0  0  0  0  0  0  0  0  0  0  0
   30.3907   -0.8822   -0.2713 H   0  0  0  0  0  0  0  0  0  0  0  0
   26.9506   -4.4277   -1.3088 H   0  0  0  0  0  0  0  0  0  0  0  0
   25.1096   -2.5382   -0.7810 H   0  0  0  0  0  0  0  0  0  0  0  0
   25.1918    2.4750    0.8017 H   0  0  0  0  0  0  0  0  0  0  0  0
   27.0759    4.3069    1.2920 H   0  0  0  0  0  0  0  0  0  0  0  0
   30.8057    4.3549    3.1149 H   0  0  0  0  0  0  0  0  0  0  0  0
   32.0697    7.1686    3.9376 H   0  0  0  0  0  0  0  0  0  0  0  0
   30.5115    7.7174    4.5636 H   0  0  0  0  0  0  0  0  0  0  0  0
   31.0457    6.0490    4.8445 H   0  0  0  0  0  0  0  0  0  0  0  0
   29.8140    8.4386    2.2863 H   0  0  0  0  0  0  0  0  0  0  0  0
   27.8067    7.6187   -0.7142 H   0  0  0  0  0  0  0  0  0  0  0  0
   28.1995    8.8825    0.4675 H   0  0  0  0  0  0  0  0  0  0  0  0
   29.3677    8.4444   -0.7836 H   0  0  0  0  0  0  0  0  0  0  0  0
   28.7457    5.3660   -0.4996 H   0  0  0  0  0  0  0  0  0  0  0  0
   32.4349    4.3018    1.0131 H   0  0  0  0  0  0  0  0  0  0  0  0
   34.2644    2.3925    0.5036 H   0  0  0  0  0  0  0  0  0  0  0  0
   28.9712    0.7103    0.1565 H   0  0  0  0  0  0  0  0  0  0  0  0
   28.6125   -5.5095    0.4959 H   0  0  0  0  0  0  0  0  0  0  0  0
   28.6179   -7.9577    1.1661 H   0  0  0  0  0  0  0  0  0  0  0  0
   28.7066   -9.1948   -0.1023 H   0  0  0  0  0  0  0  0  0  0  0  0
   27.2819   -8.1550    0.0283 H   0  0  0  0  0  0  0  0  0  0  0  0
   29.5208   -8.6319   -2.2921 H   0  0  0  0  0  0  0  0  0  0  0  0
   31.1158   -8.0947   -4.1241 H   0  0  0  0  0  0  0  0  0  0  0  0
   29.8777   -7.1445   -4.9517 H   0  0  0  0  0  0  0  0  0  0  0  0
   31.4348   -6.4047   -4.5604 H   0  0  0  0  0  0  0  0  0  0  0  0
   30.5706   -4.5792   -3.1961 H   0  0  0  0  0  0  0  0  0  0  0  0
   22.3015   -0.0183    0.0198 C   0  0  0  0  0  0  0  0  0  0  0  0
   21.0732    0.0002    0.0266 C   0  0  0  0  0  0  0  0  0  0  0  0
   19.7294    0.0191    0.0300 C   0  0  0  0  0  0  0  0  0  0  0  0
   18.5055    0.0420    0.0276 C   0  0  0  0  0  0  0  0  0  0  0  0
   23.6453   -0.0355    0.0144 C   0  0  0  0  0  0  0  0  0  0  0  0
   24.8693   -0.0520    0.0077 C   0  0  0  0  0  0  0  0  0  0  0  0
  1  2  4  0  0  0  0
  2  3  4  0  0  0  0
  3  4  2  0  0  0  0
  4  5  4  0  0  0  0
  2  6  4  0  0  0  0
  5  6  4  0  0  0  0
  5  7  4  0  0  0  0
  7  8  4  0  0  0  0
  8  9  1  0  0  0  0
  9 10  2  0  0  0  0
  8 11  4  0  0  0  0
 10 12  1  0  0  0  0
 11 12  4  0  0  0  0
 12 13  4  0  0  0  0
 13 14  4  0  0  0  0
 14 15  4  0  0  0  0
 15 16  2  0  0  0  0
 16 17  4  0  0  0  0
 17 18  4  0  0  0  0
 18 19  1  0  0  0  0
 19 20  4  0  0  0  0
 20 21  4  0  0  0  0
 21 22  1  0  0  0  0
 21 23  4  0  0  0  0
 23 24  4  0  0  0  0
 24 25  1  0  0  0  0
 19 26  4  0  0  0  0
 24 26  4  0  0  0  0
 18 27  4  0  0  0  0
 27 28  1  0  0  0  0
 28 29  2  0  0  0  0
  1 30  4  0  0  0  0
 29 30  1  0  0  0  0
 27 31  4  0  0  0  0
 30 31  4  0  0  0  0
 14 32  4  0  0  0  0
 17 32  4  0  0  0  0
  7 33  1  0  0  0  0
 33 34  4  0  0  0  0
 34 35  4  0  0  0  0
 35 36  1  0  0  0  0
 35 37  4  0  0  0  0
 37 38  4  0  0  0  0
 38 39  1  0  0  0  0
 33 40  4  0  0  0  0
 38 40  4  0  0  0  0
  1 41  1  0  0  0  0
  3 42  1  0  0  0  0
  4 43  1  0  0  0  0
  6 44  1  0  0  0  0
  9 45  1  0  0  0  0
 10 46  1  0  0  0  0
 15 47  1  0  0  0  0
 16 48  1  0  0  0  0
 20 49  1  0  0  0  0
 22 50  1  0  0  0  0
 22 51  1  0  0  0  0
 22 52  1  0  0  0  0
 23 53  1  0  0  0  0
 25 54  1  0  0  0  0
 25 55  1  0  0  0  0
 25 56  1  0  0  0  0
 26 57  1  0  0  0  0
 28 58  1  0  0  0  0
 29 59  1  0  0  0  0
 32 60  1  0  0  0  0
 34 61  1  0  0  0  0
 36 62  1  0  0  0  0
 36 63  1  0  0  0  0
 36 64  1  0  0  0  0
 37 65  1  0  0  0  0
 39 66  1  0  0  0  0
 39 67  1  0  0  0  0
 39 68  1  0  0  0  0
 40 69  1  0  0  0  0
 70 71  4  0  0  0  0
 71 72  4  0  0  0  0
 72 73  2  0  0  0  0
 73 74  4  0  0  0  0
 71 75  4  0  0  0  0
 74 75  4  0  0  0  0
 74 76  4  0  0  0  0
 76 77  4  0  0  0  0
 77 78  1  0  0  0  0
 78 79  2  0  0  0  0
 77 80  4  0  0  0  0
 79 81  1  0  0  0  0
 80 81  4  0  0  0  0
 81 82  4  0  0  0  0
 82 83  4  0  0  0  0
 83 84  4  0  0  0  0
 84 85  2  0  0  0  0
 85 86  4  0  0  0  0
 86 87  4  0  0  0  0
 87 88  1  0  0  0  0
 88 89  4  0  0  0  0
 89 90  4  0  0  0  0
 90 91  1  0  0  0  0
 90 92  4  0  0  0  0
 92 93  4  0  0  0  0
 93 94  1  0  0  0  0
 88 95  4  0  0  0  0
 93 95  4  0  0  0  0
 87 96  4  0  0  0  0
 96 97  1  0  0  0  0
 97 98  2  0  0  0  0
 70 99  4  0  0  0  0
 98 99  1  0  0  0  0
 96100  4  0  0  0  0
 99100  4  0  0  0  0
 83101  4  0  0  0  0
 86101  4  0  0  0  0
 76102  1  0  0  0  0
102103  4  0  0  0  0
103104  4  0  0  0  0
104105  1  0  0  0  0
104106  4  0  0  0  0
106107  4  0  0  0  0
107108  1  0  0  0  0
102109  4  0  0  0  0
107109  4  0  0  0  0
 70110  1  0  0  0  0
 72111  1  0  0  0  0
 73112  1  0  0  0  0
 75113  1  0  0  0  0
 78114  1  0  0  0  0
 79115  1  0  0  0  0
 84116  1  0  0  0  0
 85117  1  0  0  0  0
 89118  1  0  0  0  0
 91119  1  0  0  0  0
 91120  1  0  0  0  0
 91121  1  0  0  0  0
 92122  1  0  0  0  0
 94123  1  0  0  0  0
 94124  1  0  0  0  0
 94125  1  0  0  0  0
 95126  1  0  0  0  0
 97127  1  0  0  0  0
 98128  1  0  0  0  0
101129  1  0  0  0  0
103130  1  0  0  0  0
105131  1  0  0  0  0
105132  1  0  0  0  0
105133  1  0  0  0  0
106134  1  0  0  0  0
108135  1  0  0  0  0
108136  1  0  0  0  0
108137  1  0  0  0  0
109138  1  0  0  0  0
139140  3  0  0  0  0
140141  4  0  0  0  0
 13142  4  0  0  0  0
141142  3  0  0  0  0
139143  4  0  0  0  0
 82144  4  0  0  0  0
143144  3  0  0  0  0
M  END
