 xtb: 6.5.1 (b24c23e)
          07292216513D

256295  0     0  0            999 V2000
   44.2406    0.0055   -0.0088 Fe  0  0  0  0  0  0  0  0  0  0  0  0
   40.8486    0.0451   -0.0445 C   0  0  0  0  0  0  0  0  0  0  0  0
   41.5050    1.2566    0.0162 C   0  0  0  0  0  0  0  0  0  0  0  0
   40.8292    2.5174    0.0779 C   0  0  0  0  0  0  0  0  0  0  0  0
   41.7874    3.4647    0.2046 C   0  0  0  0  0  0  0  0  0  0  0  0
   43.0485    2.7807    0.2101 C   0  0  0  0  0  0  0  0  0  0  0  0
   42.8624    1.4306    0.0867 N   0  0  0  0  0  0  0  0  0  0  0  0
   44.2721    3.4148    0.3965 C   0  0  0  0  0  0  0  0  0  0  0  0
   44.2852    4.8862    0.5749 C   0  0  0  0  0  0  0  0  0  0  0  0
   44.6960    5.4466    1.7877 C   0  0  0  0  0  0  0  0  0  0  0  0
   44.7067    6.8183    1.9528 C   0  0  0  0  0  0  0  0  0  0  0  0
   44.3126    7.6599    0.9074 C   0  0  0  0  0  0  0  0  0  0  0  0
   44.3364    9.1207    1.1073 C   0  0  0  0  0  0  0  0  0  0  0  0
   44.6823    9.6500    2.1322 O   0  0  0  0  0  0  0  0  0  0  0  0
   43.9044    7.1001   -0.3056 C   0  0  0  0  0  0  0  0  0  0  0  0
   43.8883    5.7261   -0.4686 C   0  0  0  0  0  0  0  0  0  0  0  0
   45.4812    2.7355    0.4216 C   0  0  0  0  0  0  0  0  0  0  0  0
   46.7525    3.3792    0.5736 C   0  0  0  0  0  0  0  0  0  0  0  0
   47.6951    2.4137    0.4599 C   0  0  0  0  0  0  0  0  0  0  0  0
   45.6499    1.3856    0.2221 N   0  0  0  0  0  0  0  0  0  0  0  0
   46.9981    1.1862    0.2334 C   0  0  0  0  0  0  0  0  0  0  0  0
   47.6529   -0.0311    0.0097 C   0  0  0  0  0  0  0  0  0  0  0  0
   46.9734   -1.2353   -0.2098 C   0  0  0  0  0  0  0  0  0  0  0  0
   47.6442   -2.4725   -0.4609 C   0  0  0  0  0  0  0  0  0  0  0  0
   46.6825   -3.4200   -0.5673 C   0  0  0  0  0  0  0  0  0  0  0  0
   45.4268   -2.7577   -0.3720 C   0  0  0  0  0  0  0  0  0  0  0  0
   45.6220   -1.4105   -0.1801 N   0  0  0  0  0  0  0  0  0  0  0  0
   44.2019   -3.4091   -0.3749 C   0  0  0  0  0  0  0  0  0  0  0  0
   44.1849   -4.8814   -0.5365 C   0  0  0  0  0  0  0  0  0  0  0  0
   43.5643   -5.4616   -1.6461 C   0  0  0  0  0  0  0  0  0  0  0  0
   43.5516   -6.8362   -1.8023 C   0  0  0  0  0  0  0  0  0  0  0  0
   44.1545   -7.6584   -0.8474 C   0  0  0  0  0  0  0  0  0  0  0  0
   44.1526   -9.1262   -0.9892 C   0  0  0  0  0  0  0  0  0  0  0  0
   44.6579   -9.8757   -0.1936 O   0  0  0  0  0  0  0  0  0  0  0  0
   44.7726   -7.0778    0.2650 C   0  0  0  0  0  0  0  0  0  0  0  0
   44.7905   -5.7047    0.4173 C   0  0  0  0  0  0  0  0  0  0  0  0
   42.9890   -2.7420   -0.2388 C   0  0  0  0  0  0  0  0  0  0  0  0
   41.7146   -3.3999   -0.2020 C   0  0  0  0  0  0  0  0  0  0  0  0
   40.7758   -2.4288   -0.1157 C   0  0  0  0  0  0  0  0  0  0  0  0
   41.4780   -1.1813   -0.0869 C   0  0  0  0  0  0  0  0  0  0  0  0
   42.8320   -1.3865   -0.1378 N   0  0  0  0  0  0  0  0  0  0  0  0
   39.7645    0.0574   -0.0517 H   0  0  0  0  0  0  0  0  0  0  0  0
   39.7585    2.6399    0.0394 H   0  0  0  0  0  0  0  0  0  0  0  0
   41.6636    4.5312    0.2999 H   0  0  0  0  0  0  0  0  0  0  0  0
   44.9923    4.7957    2.6024 H   0  0  0  0  0  0  0  0  0  0  0  0
   45.0189    7.2622    2.8920 H   0  0  0  0  0  0  0  0  0  0  0  0
   44.0082    9.7073    0.2228 H   0  0  0  0  0  0  0  0  0  0  0  0
   43.6005    7.7462   -1.1228 H   0  0  0  0  0  0  0  0  0  0  0  0
   43.5816    5.2939   -1.4143 H   0  0  0  0  0  0  0  0  0  0  0  0
   46.8956    4.4357    0.7313 H   0  0  0  0  0  0  0  0  0  0  0  0
   48.7675    2.5096    0.5132 H   0  0  0  0  0  0  0  0  0  0  0  0
   48.7130   -2.5849   -0.5448 H   0  0  0  0  0  0  0  0  0  0  0  0
   46.8020   -4.4721   -0.7680 H   0  0  0  0  0  0  0  0  0  0  0  0
   43.1059   -4.8249   -2.3944 H   0  0  0  0  0  0  0  0  0  0  0  0
   43.0732   -7.2785   -2.6701 H   0  0  0  0  0  0  0  0  0  0  0  0
   43.6397   -9.4951   -1.9030 H   0  0  0  0  0  0  0  0  0  0  0  0
   45.2352   -7.7244    1.0029 H   0  0  0  0  0  0  0  0  0  0  0  0
   45.2610   -5.2575    1.2856 H   0  0  0  0  0  0  0  0  0  0  0  0
   41.5703   -4.4677   -0.2319 H   0  0  0  0  0  0  0  0  0  0  0  0
   39.7029   -2.5278   -0.0704 H   0  0  0  0  0  0  0  0  0  0  0  0
   92.2065   -0.0420   -0.0422 Fe  0  0  0  0  0  0  0  0  0  0  0  0
   95.6013   -0.0753   -0.0755 C   0  0  0  0  0  0  0  0  0  0  0  0
   94.9464   -1.2871   -0.1414 C   0  0  0  0  0  0  0  0  0  0  0  0
   95.6250   -2.5464   -0.2020 C   0  0  0  0  0  0  0  0  0  0  0  0
   94.6670   -3.5020   -0.2205 C   0  0  0  0  0  0  0  0  0  0  0  0
   93.4037   -2.8231   -0.1837 C   0  0  0  0  0  0  0  0  0  0  0  0
   93.5881   -1.4682   -0.1289 N   0  0  0  0  0  0  0  0  0  0  0  0
   92.1759   -3.4752   -0.1647 C   0  0  0  0  0  0  0  0  0  0  0  0
   92.1616   -4.9566   -0.2063 C   0  0  0  0  0  0  0  0  0  0  0  0
   91.6727   -5.6865    0.8810 C   0  0  0  0  0  0  0  0  0  0  0  0
   91.6618   -7.0675    0.8447 C   0  0  0  0  0  0  0  0  0  0  0  0
   92.1335   -7.7493   -0.2820 C   0  0  0  0  0  0  0  0  0  0  0  0
   92.1076   -9.2235   -0.2978 C   0  0  0  0  0  0  0  0  0  0  0  0
   91.6976   -9.8952    0.6138 O   0  0  0  0  0  0  0  0  0  0  0  0
   92.6192   -7.0202   -1.3700 C   0  0  0  0  0  0  0  0  0  0  0  0
   92.6357   -5.6371   -1.3306 C   0  0  0  0  0  0  0  0  0  0  0  0
   90.9627   -2.8051   -0.1088 C   0  0  0  0  0  0  0  0  0  0  0  0
   89.6902   -3.4634   -0.1423 C   0  0  0  0  0  0  0  0  0  0  0  0
   88.7474   -2.4920   -0.1117 C   0  0  0  0  0  0  0  0  0  0  0  0
   90.7948   -1.4413   -0.0664 N   0  0  0  0  0  0  0  0  0  0  0  0
   89.4457   -1.2454   -0.0650 C   0  0  0  0  0  0  0  0  0  0  0  0
   88.7914   -0.0087   -0.0245 C   0  0  0  0  0  0  0  0  0  0  0  0
   89.4705    1.2143    0.0198 C   0  0  0  0  0  0  0  0  0  0  0  0
   88.7972    2.4752    0.0390 C   0  0  0  0  0  0  0  0  0  0  0  0
   89.7589    3.4276    0.0782 C   0  0  0  0  0  0  0  0  0  0  0  0
   91.0178    2.7430    0.0929 C   0  0  0  0  0  0  0  0  0  0  0  0
   90.8232    1.3829    0.0434 N   0  0  0  0  0  0  0  0  0  0  0  0
   92.2449    3.3893    0.1271 C   0  0  0  0  0  0  0  0  0  0  0  0
   92.2622    4.8694    0.1932 C   0  0  0  0  0  0  0  0  0  0  0  0
   92.8111    5.6143   -0.8540 C   0  0  0  0  0  0  0  0  0  0  0  0
   92.8239    6.9967   -0.7983 C   0  0  0  0  0  0  0  0  0  0  0  0
   92.2927    7.6611    0.3098 C   0  0  0  0  0  0  0  0  0  0  0  0
   92.2957    9.1333    0.3942 C   0  0  0  0  0  0  0  0  0  0  0  0
   91.8494    9.7507    1.3268 O   0  0  0  0  0  0  0  0  0  0  0  0
   91.7468    6.9151    1.3596 C   0  0  0  0  0  0  0  0  0  0  0  0
   91.7292    5.5348    1.3010 C   0  0  0  0  0  0  0  0  0  0  0  0
   93.4597    2.7134    0.0974 C   0  0  0  0  0  0  0  0  0  0  0  0
   94.7364    3.3642    0.1686 C   0  0  0  0  0  0  0  0  0  0  0  0
   95.6751    2.3913    0.1068 C   0  0  0  0  0  0  0  0  0  0  0  0
   94.9711    1.1483    0.0098 C   0  0  0  0  0  0  0  0  0  0  0  0
   93.6166    1.3563    0.0176 N   0  0  0  0  0  0  0  0  0  0  0  0
   96.6854   -0.0858   -0.0826 H   0  0  0  0  0  0  0  0  0  0  0  0
   96.6969   -2.6632   -0.2181 H   0  0  0  0  0  0  0  0  0  0  0  0
   94.7918   -4.5723   -0.2468 H   0  0  0  0  0  0  0  0  0  0  0  0
   91.3157   -5.1599    1.7587 H   0  0  0  0  0  0  0  0  0  0  0  0
   91.2896   -7.6423    1.6860 H   0  0  0  0  0  0  0  0  0  0  0  0
   92.4998   -9.6764   -1.2333 H   0  0  0  0  0  0  0  0  0  0  0  0
   92.9834   -7.5415   -2.2492 H   0  0  0  0  0  0  0  0  0  0  0  0
   93.0032   -5.0729   -2.1803 H   0  0  0  0  0  0  0  0  0  0  0  0
   89.5476   -4.5302   -0.1957 H   0  0  0  0  0  0  0  0  0  0  0  0
   87.6744   -2.5941   -0.1243 H   0  0  0  0  0  0  0  0  0  0  0  0
   87.7266    2.5992    0.0174 H   0  0  0  0  0  0  0  0  0  0  0  0
   89.6371    4.4983    0.0856 H   0  0  0  0  0  0  0  0  0  0  0  0
   93.2135    5.1011   -1.7200 H   0  0  0  0  0  0  0  0  0  0  0  0
   93.2465    7.5681   -1.6184 H   0  0  0  0  0  0  0  0  0  0  0  0
   92.7480    9.6393   -0.4853 H   0  0  0  0  0  0  0  0  0  0  0  0
   91.3398    7.4397    2.2174 H   0  0  0  0  0  0  0  0  0  0  0  0
   91.3152    4.9584    2.1205 H   0  0  0  0  0  0  0  0  0  0  0  0
   94.8823    4.4279    0.2637 H   0  0  0  0  0  0  0  0  0  0  0  0
   96.7490    2.4856    0.1304 H   0  0  0  0  0  0  0  0  0  0  0  0
   52.8502   -0.0649    0.0050 C   0  0  0  0  0  0  0  0  0  0  0  0
   51.6195   -0.0606    0.0021 C   0  0  0  0  0  0  0  0  0  0  0  0
   50.2790   -0.0533    0.0036 C   0  0  0  0  0  0  0  0  0  0  0  0
   49.0532   -0.0444    0.0049 C   0  0  0  0  0  0  0  0  0  0  0  0
   54.1904   -0.0662    0.0062 C   0  0  0  0  0  0  0  0  0  0  0  0
   55.4165   -0.0647    0.0097 C   0  0  0  0  0  0  0  0  0  0  0  0
   68.8317   -0.0118   -0.0383 C   0  0  0  0  0  0  0  0  0  0  0  0
   67.6006   -0.0190   -0.0345 C   0  0  0  0  0  0  0  0  0  0  0  0
   66.2609   -0.0259   -0.0276 C   0  0  0  0  0  0  0  0  0  0  0  0
   65.0344   -0.0343   -0.0194 C   0  0  0  0  0  0  0  0  0  0  0  0
   70.1715   -0.0056   -0.0393 C   0  0  0  0  0  0  0  0  0  0  0  0
   71.3980   -0.0031   -0.0364 C   0  0  0  0  0  0  0  0  0  0  0  0
   84.8231    0.0159   -0.0252 C   0  0  0  0  0  0  0  0  0  0  0  0
   83.5929    0.0148   -0.0203 C   0  0  0  0  0  0  0  0  0  0  0  0
   82.2518    0.0159   -0.0189 C   0  0  0  0  0  0  0  0  0  0  0  0
   81.0258    0.0126   -0.0130 C   0  0  0  0  0  0  0  0  0  0  0  0
   86.1644    0.0101   -0.0256 C   0  0  0  0  0  0  0  0  0  0  0  0
   87.3900    0.0046   -0.0276 C   0  0  0  0  0  0  0  0  0  0  0  0
   60.2256   -0.0553    0.0120 Fe  0  0  0  0  0  0  0  0  0  0  0  0
   56.8153   -0.0628    0.0122 C   0  0  0  0  0  0  0  0  0  0  0  0
   57.4855    1.1583    0.1687 C   0  0  0  0  0  0  0  0  0  0  0  0
   56.8157    2.4147    0.2883 C   0  0  0  0  0  0  0  0  0  0  0  0
   57.7684    3.3356    0.5755 C   0  0  0  0  0  0  0  0  0  0  0  0
   59.0145    2.6327    0.6387 C   0  0  0  0  0  0  0  0  0  0  0  0
   58.8297    1.3061    0.3374 N   0  0  0  0  0  0  0  0  0  0  0  0
   60.2183    3.2091    1.0279 C   0  0  0  0  0  0  0  0  0  0  0  0
   60.2141    4.6212    1.4713 C   0  0  0  0  0  0  0  0  0  0  0  0
   60.9729    5.5785    0.7910 C   0  0  0  0  0  0  0  0  0  0  0  0
   60.9678    6.8959    1.2068 C   0  0  0  0  0  0  0  0  0  0  0  0
   60.2095    7.2850    2.3159 C   0  0  0  0  0  0  0  0  0  0  0  0
   60.2274    8.6967    2.7436 C   0  0  0  0  0  0  0  0  0  0  0  0
   60.8670    9.5539    2.1907 O   0  0  0  0  0  0  0  0  0  0  0  0
   59.4521    6.3292    2.9969 C   0  0  0  0  0  0  0  0  0  0  0  0
   59.4520    5.0112    2.5760 C   0  0  0  0  0  0  0  0  0  0  0  0
   61.4258    2.5216    1.0162 C   0  0  0  0  0  0  0  0  0  0  0  0
   62.6721    3.0743    1.4555 C   0  0  0  0  0  0  0  0  0  0  0  0
   63.6297    2.1631    1.1553 C   0  0  0  0  0  0  0  0  0  0  0  0
   61.6166    1.2596    0.5086 N   0  0  0  0  0  0  0  0  0  0  0  0
   62.9628    1.0548    0.5482 C   0  0  0  0  0  0  0  0  0  0  0  0
   63.6361   -0.0416   -0.0084 C   0  0  0  0  0  0  0  0  0  0  0  0
   62.9648   -1.1463   -0.5506 C   0  0  0  0  0  0  0  0  0  0  0  0
   63.6332   -2.2539   -1.1575 C   0  0  0  0  0  0  0  0  0  0  0  0
   62.6801   -3.1774   -1.4336 C   0  0  0  0  0  0  0  0  0  0  0  0
   61.4349   -2.6314   -0.9832 C   0  0  0  0  0  0  0  0  0  0  0  0
   61.6213   -1.3638   -0.4885 N   0  0  0  0  0  0  0  0  0  0  0  0
   60.2319   -3.3269   -0.9805 C   0  0  0  0  0  0  0  0  0  0  0  0
   60.2334   -4.7418   -1.4153 C   0  0  0  0  0  0  0  0  0  0  0  0
   60.9968   -5.6903   -0.7292 C   0  0  0  0  0  0  0  0  0  0  0  0
   60.9981   -7.0135   -1.1337 C   0  0  0  0  0  0  0  0  0  0  0  0
   60.2413   -7.4123   -2.2378 C   0  0  0  0  0  0  0  0  0  0  0  0
   60.2291   -8.8155   -2.6930 C   0  0  0  0  0  0  0  0  0  0  0  0
   59.5947   -9.2050   -3.6392 O   0  0  0  0  0  0  0  0  0  0  0  0
   59.4798   -6.4624   -2.9265 C   0  0  0  0  0  0  0  0  0  0  0  0
   59.4727   -5.1427   -2.5178 C   0  0  0  0  0  0  0  0  0  0  0  0
   59.0260   -2.7538   -0.5934 C   0  0  0  0  0  0  0  0  0  0  0  0
   57.7823   -3.4610   -0.5291 C   0  0  0  0  0  0  0  0  0  0  0  0
   56.8252   -2.5415   -0.2531 C   0  0  0  0  0  0  0  0  0  0  0  0
   57.4900   -1.2819   -0.1389 C   0  0  0  0  0  0  0  0  0  0  0  0
   58.8354   -1.4259   -0.3010 N   0  0  0  0  0  0  0  0  0  0  0  0
   55.7540    2.5584    0.1690 H   0  0  0  0  0  0  0  0  0  0  0  0
   57.6474    4.3957    0.7275 H   0  0  0  0  0  0  0  0  0  0  0  0
   61.5522    5.2817   -0.0760 H   0  0  0  0  0  0  0  0  0  0  0  0
   61.5493    7.6461    0.6817 H   0  0  0  0  0  0  0  0  0  0  0  0
   59.5954    8.9124    3.6312 H   0  0  0  0  0  0  0  0  0  0  0  0
   58.8632    6.6222    3.8599 H   0  0  0  0  0  0  0  0  0  0  0  0
   58.8730    4.2687    3.1135 H   0  0  0  0  0  0  0  0  0  0  0  0
   62.7900    4.0334    1.9325 H   0  0  0  0  0  0  0  0  0  0  0  0
   64.6929    2.2233    1.3230 H   0  0  0  0  0  0  0  0  0  0  0  0
   64.6944   -2.3054   -1.3405 H   0  0  0  0  0  0  0  0  0  0  0  0
   62.8000   -4.1402   -1.9027 H   0  0  0  0  0  0  0  0  0  0  0  0
   61.5762   -5.3850    0.1348 H   0  0  0  0  0  0  0  0  0  0  0  0
   61.5885   -7.7449   -0.5916 H   0  0  0  0  0  0  0  0  0  0  0  0
   60.8609   -9.4976   -2.0853 H   0  0  0  0  0  0  0  0  0  0  0  0
   58.8982   -6.7809   -3.7848 H   0  0  0  0  0  0  0  0  0  0  0  0
   58.8911   -4.4060   -3.0602 H   0  0  0  0  0  0  0  0  0  0  0  0
   57.6658   -4.5224   -0.6747 H   0  0  0  0  0  0  0  0  0  0  0  0
   55.7635   -2.6881   -0.1374 H   0  0  0  0  0  0  0  0  0  0  0  0
   76.2112   -0.0016   -0.0047 Fe  0  0  0  0  0  0  0  0  0  0  0  0
   72.7966   -0.0023   -0.0283 C   0  0  0  0  0  0  0  0  0  0  0  0
   73.4668    1.2118    0.1739 C   0  0  0  0  0  0  0  0  0  0  0  0
   72.7941    2.4629    0.3301 C   0  0  0  0  0  0  0  0  0  0  0  0
   73.7468    3.3801    0.6267 C   0  0  0  0  0  0  0  0  0  0  0  0
   74.9961    2.6802    0.6594 C   0  0  0  0  0  0  0  0  0  0  0  0
   74.8118    1.3584    0.3350 N   0  0  0  0  0  0  0  0  0  0  0  0
   76.2029    3.2587    1.0325 C   0  0  0  0  0  0  0  0  0  0  0  0
   76.1969    4.6679    1.4866 C   0  0  0  0  0  0  0  0  0  0  0  0
   76.9221    5.6397    0.7909 C   0  0  0  0  0  0  0  0  0  0  0  0
   76.9098    6.9545    1.2151 C   0  0  0  0  0  0  0  0  0  0  0  0
   76.1784    7.3258    2.3480 C   0  0  0  0  0  0  0  0  0  0  0  0
   76.1846    8.7358    2.7820 C   0  0  0  0  0  0  0  0  0  0  0  0
   76.7904    9.6069    2.2132 O   0  0  0  0  0  0  0  0  0  0  0  0
   75.4564    6.3548    3.0457 C   0  0  0  0  0  0  0  0  0  0  0  0
   75.4630    5.0395    2.6164 C   0  0  0  0  0  0  0  0  0  0  0  0
   77.4145    2.5786    0.9969 C   0  0  0  0  0  0  0  0  0  0  0  0
   78.6628    3.1410    1.4170 C   0  0  0  0  0  0  0  0  0  0  0  0
   79.6209    2.2308    1.1160 C   0  0  0  0  0  0  0  0  0  0  0  0
   77.6045    1.3147    0.4950 N   0  0  0  0  0  0  0  0  0  0  0  0
   78.9522    1.1137    0.5274 C   0  0  0  0  0  0  0  0  0  0  0  0
   79.6260    0.0081   -0.0080 C   0  0  0  0  0  0  0  0  0  0  0  0
   78.9569   -1.1053   -0.5332 C   0  0  0  0  0  0  0  0  0  0  0  0
   79.6307   -2.2260   -1.1091 C   0  0  0  0  0  0  0  0  0  0  0  0
   78.6781   -3.1489   -1.3883 C   0  0  0  0  0  0  0  0  0  0  0  0
   77.4276   -2.5882   -0.9728 C   0  0  0  0  0  0  0  0  0  0  0  0
   77.6109   -1.3162   -0.4900 N   0  0  0  0  0  0  0  0  0  0  0  0
   76.2188   -3.2736   -1.0047 C   0  0  0  0  0  0  0  0  0  0  0  0
   76.2235   -4.6908   -1.4334 C   0  0  0  0  0  0  0  0  0  0  0  0
   76.9426   -5.6440   -0.7073 C   0  0  0  0  0  0  0  0  0  0  0  0
   76.9434   -6.9702   -1.1019 C   0  0  0  0  0  0  0  0  0  0  0  0
   76.2308   -7.3672   -2.2357 C   0  0  0  0  0  0  0  0  0  0  0  0
   76.2172   -8.7739   -2.6793 C   0  0  0  0  0  0  0  0  0  0  0  0
   75.6168   -9.1631   -3.6476 O   0  0  0  0  0  0  0  0  0  0  0  0
   75.5153   -6.4121   -2.9653 C   0  0  0  0  0  0  0  0  0  0  0  0
   75.5086   -5.0892   -2.5669 C   0  0  0  0  0  0  0  0  0  0  0  0
   75.0063   -2.6917   -0.6573 C   0  0  0  0  0  0  0  0  0  0  0  0
   73.7560   -3.3903   -0.6416 C   0  0  0  0  0  0  0  0  0  0  0  0
   72.7985   -2.4691   -0.3748 C   0  0  0  0  0  0  0  0  0  0  0  0
   73.4694   -1.2173   -0.2166 C   0  0  0  0  0  0  0  0  0  0  0  0
   74.8169   -1.3663   -0.3500 N   0  0  0  0  0  0  0  0  0  0  0  0
   71.7308    2.6057    0.2247 H   0  0  0  0  0  0  0  0  0  0  0  0
   73.6244    4.4362    0.8030 H   0  0  0  0  0  0  0  0  0  0  0  0
   77.4802    5.3565   -0.0943 H   0  0  0  0  0  0  0  0  0  0  0  0
   77.4642    7.7164    0.6778 H   0  0  0  0  0  0  0  0  0  0  0  0
   75.5771    8.9360    3.6902 H   0  0  0  0  0  0  0  0  0  0  0  0
   74.8889    6.6338    3.9275 H   0  0  0  0  0  0  0  0  0  0  0  0
   74.9106    4.2852    3.1653 H   0  0  0  0  0  0  0  0  0  0  0  0
   78.7815    4.1054    1.8832 H   0  0  0  0  0  0  0  0  0  0  0  0
   80.6855    2.2963    1.2725 H   0  0  0  0  0  0  0  0  0  0  0  0
   80.6948   -2.2859   -1.2709 H   0  0  0  0  0  0  0  0  0  0  0  0
   78.8014   -4.1200   -1.8391 H   0  0  0  0  0  0  0  0  0  0  0  0
   77.4873   -5.3397    0.1792 H   0  0  0  0  0  0  0  0  0  0  0  0
   77.4985   -7.7055   -0.5285 H   0  0  0  0  0  0  0  0  0  0  0  0
   76.8100   -9.4602   -2.0378 H   0  0  0  0  0  0  0  0  0  0  0  0
   74.9686   -6.7292   -3.8468 H   0  0  0  0  0  0  0  0  0  0  0  0
   74.9624   -4.3487   -3.1400 H   0  0  0  0  0  0  0  0  0  0  0  0
   73.6357   -4.4479   -0.8106 H   0  0  0  0  0  0  0  0  0  0  0  0
   71.7331   -2.6097   -0.2904 H   0  0  0  0  0  0  0  0  0  0  0  0
  2  3  4  0  0  0  0
  3  4  4  0  0  0  0
  4  5  2  0  0  0  0
  5  6  4  0  0  0  0
  1  7  1  0  0  0  0
  3  7  4  0  0  0  0
  6  7  4  0  0  0  0
  6  8  4  0  0  0  0
  8  9  1  0  0  0  0
  9 10  4  0  0  0  0
 10 11  4  0  0  0  0
 11 12  4  0  0  0  0
 12 13  1  0  0  0  0
 13 14  2  0  0  0  0
 12 15  4  0  0  0  0
  9 16  4  0  0  0  0
 15 16  4  0  0  0  0
  8 17  4  0  0  0  0
 17 18  4  0  0  0  0
 18 19  2  0  0  0  0
  1 20  1  0  0  0  0
 17 20  4  0  0  0  0
 19 21  4  0  0  0  0
 20 21  4  0  0  0  0
 21 22  4  0  0  0  0
 22 23  4  0  0  0  0
 23 24  4  0  0  0  0
 24 25  2  0  0  0  0
 25 26  4  0  0  0  0
  1 27  1  0  0  0  0
 23 27  4  0  0  0  0
 26 27  4  0  0  0  0
 26 28  4  0  0  0  0
 28 29  1  0  0  0  0
 29 30  4  0  0  0  0
 30 31  4  0  0  0  0
 31 32  4  0  0  0  0
 32 33  1  0  0  0  0
 33 34  2  0  0  0  0
 32 35  4  0  0  0  0
 29 36  4  0  0  0  0
 35 36  4  0  0  0  0
 28 37  4  0  0  0  0
 37 38  4  0  0  0  0
 38 39  2  0  0  0  0
  2 40  4  0  0  0  0
 39 40  4  0  0  0  0
  1 41  1  0  0  0  0
 37 41  4  0  0  0  0
 40 41  4  0  0  0  0
  2 42  1  0  0  0  0
  4 43  1  0  0  0  0
  5 44  1  0  0  0  0
 10 45  1  0  0  0  0
 11 46  1  0  0  0  0
 13 47  1  0  0  0  0
 15 48  1  0  0  0  0
 16 49  1  0  0  0  0
 18 50  1  0  0  0  0
 19 51  1  0  0  0  0
 24 52  1  0  0  0  0
 25 53  1  0  0  0  0
 30 54  1  0  0  0  0
 31 55  1  0  0  0  0
 33 56  1  0  0  0  0
 35 57  1  0  0  0  0
 36 58  1  0  0  0  0
 38 59  1  0  0  0  0
 39 60  1  0  0  0  0
 62 63  4  0  0  0  0
 63 64  4  0  0  0  0
 64 65  2  0  0  0  0
 65 66  4  0  0  0  0
 61 67  1  0  0  0  0
 63 67  4  0  0  0  0
 66 67  4  0  0  0  0
 66 68  4  0  0  0  0
 68 69  1  0  0  0  0
 69 70  4  0  0  0  0
 70 71  4  0  0  0  0
 71 72  4  0  0  0  0
 72 73  1  0  0  0  0
 73 74  2  0  0  0  0
 72 75  4  0  0  0  0
 69 76  4  0  0  0  0
 75 76  4  0  0  0  0
 68 77  4  0  0  0  0
 77 78  4  0  0  0  0
 78 79  2  0  0  0  0
 61 80  1  0  0  0  0
 77 80  4  0  0  0  0
 79 81  4  0  0  0  0
 80 81  4  0  0  0  0
 81 82  4  0  0  0  0
 82 83  4  0  0  0  0
 83 84  4  0  0  0  0
 84 85  2  0  0  0  0
 85 86  4  0  0  0  0
 61 87  1  0  0  0  0
 83 87  4  0  0  0  0
 86 87  4  0  0  0  0
 86 88  4  0  0  0  0
 88 89  1  0  0  0  0
 89 90  4  0  0  0  0
 90 91  4  0  0  0  0
 91 92  4  0  0  0  0
 92 93  1  0  0  0  0
 93 94  2  0  0  0  0
 92 95  4  0  0  0  0
 89 96  4  0  0  0  0
 95 96  4  0  0  0  0
 88 97  4  0  0  0  0
 97 98  4  0  0  0  0
 98 99  2  0  0  0  0
 62100  4  0  0  0  0
 99100  4  0  0  0  0
 61101  1  0  0  0  0
 97101  4  0  0  0  0
100101  4  0  0  0  0
 62102  1  0  0  0  0
 64103  1  0  0  0  0
 65104  1  0  0  0  0
 70105  1  0  0  0  0
 71106  1  0  0  0  0
 73107  1  0  0  0  0
 75108  1  0  0  0  0
 76109  1  0  0  0  0
 78110  1  0  0  0  0
 79111  1  0  0  0  0
 84112  1  0  0  0  0
 85113  1  0  0  0  0
 90114  1  0  0  0  0
 91115  1  0  0  0  0
 93116  1  0  0  0  0
 95117  1  0  0  0  0
 96118  1  0  0  0  0
 98119  1  0  0  0  0
 99120  1  0  0  0  0
121122  3  0  0  0  0
122123  4  0  0  0  0
 22124  4  0  0  0  0
123124  3  0  0  0  0
121125  4  0  0  0  0
125126  3  0  0  0  0
127128  3  0  0  0  0
128129  4  0  0  0  0
129130  3  0  0  0  0
127131  4  0  0  0  0
131132  3  0  0  0  0
133134  3  0  0  0  0
134135  4  0  0  0  0
135136  3  0  0  0  0
133137  4  0  0  0  0
 82138  4  0  0  0  0
137138  3  0  0  0  0
126140  4  0  0  0  0
140141  4  0  0  0  0
141142  4  0  0  0  0
142143  2  0  0  0  0
143144  4  0  0  0  0
139145  1  0  0  0  0
141145  4  0  0  0  0
144145  4  0  0  0  0
144146  4  0  0  0  0
146147  1  0  0  0  0
147148  4  0  0  0  0
148149  4  0  0  0  0
149150  4  0  0  0  0
150151  1  0  0  0  0
151152  2  0  0  0  0
150153  4  0  0  0  0
147154  4  0  0  0  0
153154  4  0  0  0  0
146155  4  0  0  0  0
155156  4  0  0  0  0
156157  2  0  0  0  0
139158  1  0  0  0  0
155158  4  0  0  0  0
157159  4  0  0  0  0
158159  4  0  0  0  0
130160  4  0  0  0  0
159160  4  0  0  0  0
160161  4  0  0  0  0
161162  4  0  0  0  0
162163  2  0  0  0  0
163164  4  0  0  0  0
139165  1  0  0  0  0
161165  4  0  0  0  0
164165  4  0  0  0  0
164166  4  0  0  0  0
166167  1  0  0  0  0
167168  4  0  0  0  0
168169  4  0  0  0  0
169170  4  0  0  0  0
170171  1  0  0  0  0
171172  2  0  0  0  0
170173  4  0  0  0  0
167174  4  0  0  0  0
173174  4  0  0  0  0
166175  4  0  0  0  0
175176  4  0  0  0  0
176177  2  0  0  0  0
140178  4  0  0  0  0
177178  4  0  0  0  0
139179  1  0  0  0  0
175179  4  0  0  0  0
178179  4  0  0  0  0
142180  1  0  0  0  0
143181  1  0  0  0  0
148182  1  0  0  0  0
149183  1  0  0  0  0
151184  1  0  0  0  0
153185  1  0  0  0  0
154186  1  0  0  0  0
156187  1  0  0  0  0
157188  1  0  0  0  0
162189  1  0  0  0  0
163190  1  0  0  0  0
168191  1  0  0  0  0
169192  1  0  0  0  0
171193  1  0  0  0  0
173194  1  0  0  0  0
174195  1  0  0  0  0
176196  1  0  0  0  0
177197  1  0  0  0  0
132199  4  0  0  0  0
199200  4  0  0  0  0
200201  4  0  0  0  0
201202  2  0  0  0  0
202203  4  0  0  0  0
198204  1  0  0  0  0
200204  4  0  0  0  0
203204  4  0  0  0  0
203205  4  0  0  0  0
205206  1  0  0  0  0
206207  4  0  0  0  0
207208  4  0  0  0  0
208209  4  0  0  0  0
209210  1  0  0  0  0
210211  2  0  0  0  0
209212  4  0  0  0  0
206213  4  0  0  0  0
212213  4  0  0  0  0
205214  4  0  0  0  0
214215  4  0  0  0  0
215216  2  0  0  0  0
198217  1  0  0  0  0
214217  4  0  0  0  0
216218  4  0  0  0  0
217218  4  0  0  0  0
136219  4  0  0  0  0
218219  4  0  0  0  0
219220  4  0  0  0  0
220221  4  0  0  0  0
221222  2  0  0  0  0
222223  4  0  0  0  0
198224  1  0  0  0  0
220224  4  0  0  0  0
223224  4  0  0  0  0
223225  4  0  0  0  0
225226  1  0  0  0  0
226227  4  0  0  0  0
227228  4  0  0  0  0
228229  4  0  0  0  0
229230  1  0  0  0  0
230231  2  0  0  0  0
229232  4  0  0  0  0
226233  4  0  0  0  0
232233  4  0  0  0  0
225234  4  0  0  0  0
234235  4  0  0  0  0
235236  2  0  0  0  0
199237  4  0  0  0  0
236237  4  0  0  0  0
198238  1  0  0  0  0
234238  4  0  0  0  0
237238  4  0  0  0  0
201239  1  0  0  0  0
202240  1  0  0  0  0
207241  1  0  0  0  0
208242  1  0  0  0  0
210243  1  0  0  0  0
212244  1  0  0  0  0
213245  1  0  0  0  0
215246  1  0  0  0  0
216247  1  0  0  0  0
221248  1  0  0  0  0
222249  1  0  0  0  0
227250  1  0  0  0  0
228251  1  0  0  0  0
230252  1  0  0  0  0
232253  1  0  0  0  0
233254  1  0  0  0  0
235255  1  0  0  0  0
236256  1  0  0  0  0
M  END
