188

C 21.065336 -0.027076 0.077674
C 21.799212 1.195983 0.708836
C 21.205141 2.216487 1.415857
C 22.230226 3.138109 1.755141
C 23.414645 2.653263 1.234226
N 23.147433 1.440712 0.649061
C 24.834787 3.358187 1.271921
C 24.826521 4.792816 1.592490
C 24.516942 5.684762 0.626879
C 24.448011 7.165710 0.832962
N 24.894808 7.554922 2.168574
C 25.133459 6.624975 3.153751
C 25.127312 5.306474 2.923366
C 25.960786 2.658791 0.968409
C 27.260204 3.296572 0.938965
C 28.163042 2.389915 0.583258
N 26.158648 1.346176 0.628956
C 27.487664 1.122722 0.377279
C 28.153980 -0.000992 0.000453
C 27.376141 -1.370841 -0.196566
C 27.915992 -2.638303 -0.097201
C 26.889975 -3.565626 -0.407479
C 25.748640 -2.839848 -0.677586
N 26.041438 -1.508532 -0.491780
C 24.335418 -3.422610 -1.101606
C 24.345300 -4.756959 -1.714885
C 23.953756 -5.828078 -0.990268
C 23.883155 -7.227244 -1.517867
N 24.440856 -7.337096 -2.865049
C 24.744810 -6.218957 -3.609659
C 24.726706 -4.979974 -3.103546
C 23.214052 -2.680570 -0.905386
C 21.893698 -3.144639 -1.292589
C 21.007531 -2.211438 -0.956503
C 21.728323 -1.115765 -0.355561
N 23.049408 -1.438524 -0.358386
H 19.988151 0.023891 -0.024029
H 20.154691 2.295872 1.649022
H 22.113950 4.064206 2.297509
H 23.842336 0.818368 0.244138
H 24.289721 5.315613 -0.369692
H 23.416293 7.503802 0.684924
H 25.076564 7.669827 0.091500
H 24.592625 8.465590 2.489686
H 25.339402 7.030360 4.138146
H 25.334889 4.579877 3.701666
H 27.463431 4.330369 1.156487
H 29.214447 2.584943 0.475261
H 28.938767 -2.873566 0.156365
H 26.974871 -4.641697 -0.438718
H 25.358609 -0.755771 -0.515598
H 23.645050 -5.673350 0.041023
H 22.838177 -7.555924 -1.530494
H 24.438690 -7.897821 -0.854168
H 24.115992 -8.130059 -3.403641
H 25.007338 -6.406278 -4.645074
H 24.977683 -4.107173 -3.697359
H 21.669990 -4.079294 -1.773944
H 19.944830 -2.253826 -1.112433
C 63.489887 -0.019531 0.079824
C 62.756011 -1.391574 -0.028507
C 63.350081 -2.631473 0.034395
C 62.324996 -3.593504 -0.163082
C 61.140578 -2.906904 -0.350185
N 61.407789 -1.568035 -0.208304
C 59.720436 -3.525814 -0.689726
C 59.728702 -4.913931 -1.173520
C 60.038280 -5.162917 -2.464248
C 60.107211 -6.530048 -3.069746
N 59.660414 -7.564817 -2.139908
C 59.421764 -7.293852 -0.812522
C 59.427911 -6.051957 -0.313303
C 58.594436 -2.771485 -0.578989
C 57.295018 -3.297948 -0.940192
C 56.392181 -2.339978 -0.764561
N 58.396574 -1.477101 -0.175558
C 57.067558 -1.154549 -0.271646
C 56.401242 -0.000992 0.000453
C 57.179081 1.266950 0.555092
C 56.639230 2.291657 1.307628
C 57.665247 3.243243 1.532759
C 58.806583 2.768857 0.920657
N 58.513785 1.539570 0.376799
C 60.219804 3.487592 0.867507
C 60.209922 4.944783 1.049699
C 60.601466 5.473059 2.230076
C 60.672067 6.940168 2.519243
N 60.114366 7.743637 1.432318
C 59.810412 7.185942 0.210166
C 59.828516 5.866281 -0.012825
C 61.341170 2.753580 0.643115
C 62.661524 3.352043 0.558689
C 63.547692 2.381858 0.352391
C 62.826899 1.133996 0.285525
N 61.505814 1.409764 0.453255
H 64.567071 -0.009233 -0.033468
H 64.400531 -2.821839 0.190692
H 62.441272 -4.666386 -0.190339
H 60.712886 -0.825730 -0.224360
H 60.265501 -4.323910 -3.116546
H 61.138929 -6.739324 -3.373760
H 59.478658 -6.567610 -3.965563
H 59.962597 -8.507960 -2.347054
H 59.215821 -8.157233 -0.189672
H 59.220333 -5.844750 0.731091
H 57.091791 -4.291122 -1.300271
H 55.340776 -2.448785 -0.959137
H 55.616455 2.357924 1.647117
H 57.580351 4.174149 2.073423
H 59.196613 0.912433 -0.040231
H 60.910172 4.797965 3.024902
H 61.717045 7.226135 2.681764
H 60.116532 7.160177 3.436720
H 60.439230 8.701393 1.392606
H 59.547884 7.890907 -0.570984
H 59.577539 5.437585 -0.977509
H 62.885232 4.400036 0.642305
H 64.610392 2.500072 0.242226
C 34.691863 -0.000122 0.009007
C 33.482924 -0.013577 0.000560
C 32.061395 -0.004758 -0.011423
C 30.849726 0.002681 -0.000560
C 36.108468 -0.006797 0.009540
C 37.329164 0.002681 -0.000560
C 51.070877 -0.000122 0.009007
C 49.861938 -0.013577 0.000560
C 48.440409 -0.004758 -0.011423
C 47.228739 0.002681 -0.000560
C 52.487481 -0.006797 0.009540
C 53.708177 0.002681 -0.000560
C 38.666151 0.001464 -0.000805
C 39.441843 -0.146102 1.378291
C 38.868666 -0.126887 2.634152
C 39.909165 -0.266683 3.580295
C 41.095182 -0.365564 2.881851
N 40.802016 -0.285915 1.540287
C 42.534784 -0.512986 3.527350
C 42.558393 -0.762999 4.977874
C 42.497477 -2.034311 5.429366
C 42.556738 -2.421954 6.874083
N 42.519775 -1.257172 7.757862
C 42.691119 0.019314 7.270992
C 42.703612 0.302509 5.962867
C 43.660697 -0.404225 2.774280
C 44.972802 -0.483267 3.382244
C 45.884723 -0.322599 2.432287
N 43.857487 -0.212860 1.432478
C 45.202322 -0.158753 1.163848
C 45.885184 0.001464 -0.000805
C 45.108132 0.106758 -1.381637
C 45.674604 0.018189 -2.637673
C 44.634173 0.153119 -3.584849
C 43.455714 0.317854 -2.885819
N 43.751600 0.273449 -1.543685
C 42.019736 0.497264 -3.528875
C 42.000510 0.765651 -4.975934
C 42.104741 2.039207 -5.412986
C 42.053463 2.445276 -6.852844
N 42.048626 1.290264 -7.750437
C 41.832702 0.015201 -7.277437
C 41.813921 -0.282405 -5.972662
C 40.893226 0.400777 -2.775030
C 39.582094 0.516464 -3.378732
C 38.669138 0.362092 -2.428957
C 39.350367 0.164712 -1.164387
N 40.695281 0.194840 -1.435382
H 37.818640 -0.015250 2.856062
H 39.804855 -0.282937 4.655145
H 41.486746 -0.286385 0.787807
H 42.416234 -2.840757 4.705394
H 43.476038 -2.988046 7.059095
H 41.708409 -3.070458 7.115603
H 42.885036 -1.410716 8.689482
H 42.812938 0.791983 8.022283
H 42.833475 1.312298 5.588242
H 45.182852 -0.633773 4.426182
H 46.945967 -0.331801 2.600148
H 46.720126 -0.133220 -2.857643
H 44.733139 0.126749 -4.660263
H 43.069593 0.310926 -0.789876
H 42.216954 2.834010 -4.680301
H 41.152372 3.043108 -7.027809
H 42.921619 3.068696 -7.090251
H 41.683606 1.467512 -8.677870
H 41.679392 -0.743549 -8.036879
H 41.647215 -1.290761 -5.609153
H 39.373308 0.686928 -4.419876
H 37.608067 0.396627 -2.594570
