 xtb: 6.5.1 (b24c23e)
          07302210323D

152171  0     0  0            999 V2000
   11.8939    0.0051    0.0347 Ni  0  0  0  0  0  0  0  0  0  0  0  0
    8.4955    0.0927    0.0207 C   0  0  0  0  0  0  0  0  0  0  0  0
    9.1589    0.8879    0.9318 C   0  0  0  0  0  0  0  0  0  0  0  0
    8.4923    1.7410    1.8687 C   0  0  0  0  0  0  0  0  0  0  0  0
    9.4593    2.4015    2.5475 C   0  0  0  0  0  0  0  0  0  0  0  0
   10.7143    1.9498    2.0240 C   0  0  0  0  0  0  0  0  0  0  0  0
   10.5208    1.0102    1.0429 N   0  0  0  0  0  0  0  0  0  0  0  0
   11.9410    2.4365    2.4466 C   0  0  0  0  0  0  0  0  0  0  0  0
   13.1477    1.9821    1.9427 C   0  0  0  0  0  0  0  0  0  0  0  0
   14.4185    2.4852    2.3667 C   0  0  0  0  0  0  0  0  0  0  0  0
   15.3605    1.7792    1.6974 C   0  0  0  0  0  0  0  0  0  0  0  0
   13.3094    0.9834    1.0084 N   0  0  0  0  0  0  0  0  0  0  0  0
   14.6620    0.8490    0.8669 C   0  0  0  0  0  0  0  0  0  0  0  0
   15.3121   -0.0869    0.0571 C   0  0  0  0  0  0  0  0  0  0  0  0
   14.6216   -0.9860   -0.7604 C   0  0  0  0  0  0  0  0  0  0  0  0
   15.2794   -1.9579   -1.5752 C   0  0  0  0  0  0  0  0  0  0  0  0
   14.3105   -2.6072   -2.2631 C   0  0  0  0  0  0  0  0  0  0  0  0
   13.0632   -2.0255   -1.8702 C   0  0  0  0  0  0  0  0  0  0  0  0
   11.8398   -2.4072   -2.3995 C   0  0  0  0  0  0  0  0  0  0  0  0
   11.8190   -3.4491   -3.4634 C   0  0  0  0  0  0  0  0  0  0  0  0
   12.3291   -3.1672   -4.7380 C   0  0  0  0  0  0  0  0  0  0  0  0
   12.8143   -1.9108   -4.9182 O   0  0  0  0  0  0  0  0  0  0  0  0
   13.3693   -1.5281   -6.1602 C   0  0  0  0  0  0  0  0  0  0  0  0
   12.3100   -4.1409   -5.7360 C   0  0  0  0  0  0  0  0  0  0  0  0
   11.7859   -5.3934   -5.4541 C   0  0  0  0  0  0  0  0  0  0  0  0
   11.2773   -5.6956   -4.2000 C   0  0  0  0  0  0  0  0  0  0  0  0
   11.2910   -4.7205   -3.2031 C   0  0  0  0  0  0  0  0  0  0  0  0
   10.8215   -4.9221   -1.9436 O   0  0  0  0  0  0  0  0  0  0  0  0
   10.2578   -6.1662   -1.5802 C   0  0  0  0  0  0  0  0  0  0  0  0
   10.6350   -1.8599   -1.9819 C   0  0  0  0  0  0  0  0  0  0  0  0
    9.3625   -2.2265   -2.5300 C   0  0  0  0  0  0  0  0  0  0  0  0
    8.4254   -1.5298   -1.8463 C   0  0  0  0  0  0  0  0  0  0  0  0
    9.1269   -0.7309   -0.8877 C   0  0  0  0  0  0  0  0  0  0  0  0
   10.4818   -0.9254   -0.9885 N   0  0  0  0  0  0  0  0  0  0  0  0
   13.2656   -1.0424   -0.9272 N   0  0  0  0  0  0  0  0  0  0  0  0
   11.9628    3.5022    3.4905 C   0  0  0  0  0  0  0  0  0  0  0  0
   12.1024    3.1644    4.8415 C   0  0  0  0  0  0  0  0  0  0  0  0
   12.2069    1.8369    5.1114 O   0  0  0  0  0  0  0  0  0  0  0  0
   12.3485    1.3878    6.4440 C   0  0  0  0  0  0  0  0  0  0  0  0
   12.1247    4.1624    5.8157 C   0  0  0  0  0  0  0  0  0  0  0  0
   12.0090    5.4896    5.4308 C   0  0  0  0  0  0  0  0  0  0  0  0
   11.8703    5.8457    4.0977 C   0  0  0  0  0  0  0  0  0  0  0  0
   11.8464    4.8478    3.1236 C   0  0  0  0  0  0  0  0  0  0  0  0
   11.7165    5.0883    1.7926 O   0  0  0  0  0  0  0  0  0  0  0  0
   11.6080    6.4132    1.3130 C   0  0  0  0  0  0  0  0  0  0  0  0
    7.4119    0.1205    0.0147 H   0  0  0  0  0  0  0  0  0  0  0  0
    7.4212    1.8128    1.9740 H   0  0  0  0  0  0  0  0  0  0  0  0
    9.3513    3.1327    3.3325 H   0  0  0  0  0  0  0  0  0  0  0  0
   14.5559    3.2754    3.0871 H   0  0  0  0  0  0  0  0  0  0  0  0
   16.4340    1.8652    1.7506 H   0  0  0  0  0  0  0  0  0  0  0  0
   16.3464   -2.1099   -1.6048 H   0  0  0  0  0  0  0  0  0  0  0  0
   14.4178   -3.4080   -2.9762 H   0  0  0  0  0  0  0  0  0  0  0  0
   12.6271   -1.5818   -6.9659 H   0  0  0  0  0  0  0  0  0  0  0  0
   13.6946   -0.4929   -6.0411 H   0  0  0  0  0  0  0  0  0  0  0  0
   14.2342   -2.1495   -6.4219 H   0  0  0  0  0  0  0  0  0  0  0  0
   12.6975   -3.9321   -6.7241 H   0  0  0  0  0  0  0  0  0  0  0  0
   11.7735   -6.1514   -6.2296 H   0  0  0  0  0  0  0  0  0  0  0  0
   10.8766   -6.6819   -4.0079 H   0  0  0  0  0  0  0  0  0  0  0  0
    9.9491   -6.0667   -0.5379 H   0  0  0  0  0  0  0  0  0  0  0  0
    9.3807   -6.4043   -2.1942 H   0  0  0  0  0  0  0  0  0  0  0  0
   10.9898   -6.9787   -1.6631 H   0  0  0  0  0  0  0  0  0  0  0  0
    9.2203   -2.9316   -3.3329 H   0  0  0  0  0  0  0  0  0  0  0  0
    7.3533   -1.5401   -1.9648 H   0  0  0  0  0  0  0  0  0  0  0  0
   12.4096    0.2992    6.3929 H   0  0  0  0  0  0  0  0  0  0  0  0
   11.4846    1.6716    7.0573 H   0  0  0  0  0  0  0  0  0  0  0  0
   13.2639    1.7788    6.9045 H   0  0  0  0  0  0  0  0  0  0  0  0
   12.2314    3.9154    6.8635 H   0  0  0  0  0  0  0  0  0  0  0  0
   12.0275    6.2656    6.1883 H   0  0  0  0  0  0  0  0  0  0  0  0
   11.7825    6.8896    3.8278 H   0  0  0  0  0  0  0  0  0  0  0  0
   12.4961    7.0054    1.5649 H   0  0  0  0  0  0  0  0  0  0  0  0
   11.5238    6.3374    0.2273 H   0  0  0  0  0  0  0  0  0  0  0  0
   10.7153    6.9122    1.7093 H   0  0  0  0  0  0  0  0  0  0  0  0
   30.4731   -0.0341   -0.0128 Ni  0  0  0  0  0  0  0  0  0  0  0  0
   33.8716   -0.0091   -0.0941 C   0  0  0  0  0  0  0  0  0  0  0  0
   33.2089   -0.7985   -1.0108 C   0  0  0  0  0  0  0  0  0  0  0  0
   33.8761   -1.6050   -1.9876 C   0  0  0  0  0  0  0  0  0  0  0  0
   32.9096   -2.1831   -2.7384 C   0  0  0  0  0  0  0  0  0  0  0  0
   31.6543   -1.7288   -2.2181 C   0  0  0  0  0  0  0  0  0  0  0  0
   31.8470   -0.8909   -1.1486 N   0  0  0  0  0  0  0  0  0  0  0  0
   30.4280   -2.0772   -2.7611 C   0  0  0  0  0  0  0  0  0  0  0  0
   29.2210   -1.6424   -2.2410 C   0  0  0  0  0  0  0  0  0  0  0  0
   27.9506   -1.9904   -2.8003 C   0  0  0  0  0  0  0  0  0  0  0  0
   27.0080   -1.4286   -2.0068 C   0  0  0  0  0  0  0  0  0  0  0  0
   29.0584   -0.8597   -1.1196 N   0  0  0  0  0  0  0  0  0  0  0  0
   27.7057   -0.7395   -0.9669 C   0  0  0  0  0  0  0  0  0  0  0  0
   27.0549   -0.0718    0.0747 C   0  0  0  0  0  0  0  0  0  0  0  0
   27.7448    0.6098    1.0812 C   0  0  0  0  0  0  0  0  0  0  0  0
   27.0862    1.2781    2.1586 C   0  0  0  0  0  0  0  0  0  0  0  0
   28.0546    1.8671    2.8995 C   0  0  0  0  0  0  0  0  0  0  0  0
   29.3023    1.5615    2.2684 C   0  0  0  0  0  0  0  0  0  0  0  0
   30.5254    2.0313    2.7220 C   0  0  0  0  0  0  0  0  0  0  0  0
   30.5461    2.9366    3.9044 C   0  0  0  0  0  0  0  0  0  0  0  0
   30.0368    4.2385    3.8063 C   0  0  0  0  0  0  0  0  0  0  0  0
   29.5506    4.5951    2.5885 O   0  0  0  0  0  0  0  0  0  0  0  0
   28.9969    5.8795    2.3859 C   0  0  0  0  0  0  0  0  0  0  0  0
   30.0579    5.0888    4.9113 C   0  0  0  0  0  0  0  0  0  0  0  0
   30.5830    4.6322    6.1107 C   0  0  0  0  0  0  0  0  0  0  0  0
   31.0906    3.3475    6.2320 C   0  0  0  0  0  0  0  0  0  0  0  0
   31.0750    2.4985    5.1257 C   0  0  0  0  0  0  0  0  0  0  0  0
   31.5436    1.2229    5.1467 O   0  0  0  0  0  0  0  0  0  0  0  0
   32.1087    0.6871    6.3261 C   0  0  0  0  0  0  0  0  0  0  0  0
   31.7305    1.6960    2.1215 C   0  0  0  0  0  0  0  0  0  0  0  0
   33.0027    2.1872    2.5625 C   0  0  0  0  0  0  0  0  0  0  0  0
   33.9403    1.6095    1.7763 C   0  0  0  0  0  0  0  0  0  0  0  0
   33.2395    0.7735    0.8494 C   0  0  0  0  0  0  0  0  0  0  0  0
   31.8845    0.8453    1.0555 N   0  0  0  0  0  0  0  0  0  0  0  0
   29.1006    0.7679    1.1610 N   0  0  0  0  0  0  0  0  0  0  0  0
   30.4062   -2.9590   -3.9644 C   0  0  0  0  0  0  0  0  0  0  0  0
   30.2670   -4.3443   -3.8220 C   0  0  0  0  0  0  0  0  0  0  0  0
   30.1646   -4.8004   -2.5463 O   0  0  0  0  0  0  0  0  0  0  0  0
   30.0230   -6.1833   -2.2911 C   0  0  0  0  0  0  0  0  0  0  0  0
   30.2426   -5.1666   -4.9485 C   0  0  0  0  0  0  0  0  0  0  0  0
   30.3559   -4.5967   -6.2077 C   0  0  0  0  0  0  0  0  0  0  0  0
   30.4945   -3.2264   -6.3707 C   0  0  0  0  0  0  0  0  0  0  0  0
   30.5204   -2.4043   -5.2443 C   0  0  0  0  0  0  0  0  0  0  0  0
   30.6500   -1.0526   -5.2930 O   0  0  0  0  0  0  0  0  0  0  0  0
   30.7561   -0.3891   -6.5363 C   0  0  0  0  0  0  0  0  0  0  0  0
   34.9552    0.0011   -0.1202 H   0  0  0  0  0  0  0  0  0  0  0  0
   34.9473   -1.6990   -2.0729 H   0  0  0  0  0  0  0  0  0  0  0  0
   33.0182   -2.8564   -3.5737 H   0  0  0  0  0  0  0  0  0  0  0  0
   27.8139   -2.5908   -3.6853 H   0  0  0  0  0  0  0  0  0  0  0  0
   25.9346   -1.4694   -2.1003 H   0  0  0  0  0  0  0  0  0  0  0  0
   26.0191    1.2852    2.3129 H   0  0  0  0  0  0  0  0  0  0  0  0
   27.9467    2.4591    3.7935 H   0  0  0  0  0  0  0  0  0  0  0  0
   29.7405    6.6684    2.5514 H   0  0  0  0  0  0  0  0  0  0  0  0
   28.6696    5.9081    1.3450 H   0  0  0  0  0  0  0  0  0  0  0  0
   28.1336    6.0521    3.0398 H   0  0  0  0  0  0  0  0  0  0  0  0
   29.6713    6.0969    4.8448 H   0  0  0  0  0  0  0  0  0  0  0  0
   30.5972    5.2928    6.9706 H   0  0  0  0  0  0  0  0  0  0  0  0
   31.4922    3.0176    7.1807 H   0  0  0  0  0  0  0  0  0  0  0  0
   32.4159   -0.3311    6.0803 H   0  0  0  0  0  0  0  0  0  0  0  0
   32.9869    1.2605    6.6469 H   0  0  0  0  0  0  0  0  0  0  0  0
   31.3780    0.6554    7.1435 H   0  0  0  0  0  0  0  0  0  0  0  0
   33.1443    2.8821    3.3742 H   0  0  0  0  0  0  0  0  0  0  0  0
   35.0123    1.7260    1.8036 H   0  0  0  0  0  0  0  0  0  0  0  0
   29.9644   -6.2876   -1.2061 H   0  0  0  0  0  0  0  0  0  0  0  0
   30.8857   -6.7503   -2.6613 H   0  0  0  0  0  0  0  0  0  0  0  0
   29.1063   -6.5830   -2.7415 H   0  0  0  0  0  0  0  0  0  0  0  0
   30.1359   -6.2389   -4.8530 H   0  0  0  0  0  0  0  0  0  0  0  0
   30.3356   -5.2360   -7.0835 H   0  0  0  0  0  0  0  0  0  0  0  0
   30.5803   -2.8107   -7.3657 H   0  0  0  0  0  0  0  0  0  0  0  0
   29.8666   -0.5536   -7.1565 H   0  0  0  0  0  0  0  0  0  0  0  0
   30.8413    0.6746   -6.3067 H   0  0  0  0  0  0  0  0  0  0  0  0
   31.6475   -0.7107   -7.0886 H   0  0  0  0  0  0  0  0  0  0  0  0
   16.7165   -0.1170    0.0630 C   0  0  0  0  0  0  0  0  0  0  0  0
   17.9407   -0.1313    0.0743 C   0  0  0  0  0  0  0  0  0  0  0  0
   19.2839   -0.1377    0.0836 C   0  0  0  0  0  0  0  0  0  0  0  0
   20.5143   -0.1349    0.0935 C   0  0  0  0  0  0  0  0  0  0  0  0
   21.8528   -0.1236    0.1008 C   0  0  0  0  0  0  0  0  0  0  0  0
   23.0832   -0.1164    0.1098 C   0  0  0  0  0  0  0  0  0  0  0  0
   24.4263   -0.0981    0.1067 C   0  0  0  0  0  0  0  0  0  0  0  0
   25.6505   -0.0828    0.1038 C   0  0  0  0  0  0  0  0  0  0  0  0
  2  3  4  0  0  0  0
  3  4  4  0  0  0  0
  4  5  2  0  0  0  0
  5  6  4  0  0  0  0
  1  7  1  0  0  0  0
  3  7  4  0  0  0  0
  6  7  4  0  0  0  0
  6  8  4  0  0  0  0
  8  9  4  0  0  0  0
  9 10  4  0  0  0  0
 10 11  2  0  0  0  0
  1 12  1  0  0  0  0
  9 12  4  0  0  0  0
 11 13  4  0  0  0  0
 12 13  4  0  0  0  0
 13 14  4  0  0  0  0
 14 15  4  0  0  0  0
 15 16  4  0  0  0  0
 16 17  2  0  0  0  0
 17 18  4  0  0  0  0
 18 19  4  0  0  0  0
 19 20  1  0  0  0  0
 20 21  4  0  0  0  0
 21 22  1  0  0  0  0
 22 23  1  0  0  0  0
 21 24  4  0  0  0  0
 24 25  4  0  0  0  0
 25 26  4  0  0  0  0
 20 27  4  0  0  0  0
 26 27  4  0  0  0  0
 27 28  1  0  0  0  0
 28 29  1  0  0  0  0
 19 30  4  0  0  0  0
 30 31  4  0  0  0  0
 31 32  2  0  0  0  0
  2 33  4  0  0  0  0
 32 33  4  0  0  0  0
  1 34  1  0  0  0  0
 30 34  4  0  0  0  0
 33 34  4  0  0  0  0
  1 35  1  0  0  0  0
 15 35  4  0  0  0  0
 18 35  4  0  0  0  0
  8 36  1  0  0  0  0
 36 37  4  0  0  0  0
 37 38  1  0  0  0  0
 38 39  1  0  0  0  0
 37 40  4  0  0  0  0
 40 41  4  0  0  0  0
 41 42  4  0  0  0  0
 36 43  4  0  0  0  0
 42 43  4  0  0  0  0
 43 44  1  0  0  0  0
 44 45  1  0  0  0  0
  2 46  1  0  0  0  0
  4 47  1  0  0  0  0
  5 48  1  0  0  0  0
 10 49  1  0  0  0  0
 11 50  1  0  0  0  0
 16 51  1  0  0  0  0
 17 52  1  0  0  0  0
 23 53  1  0  0  0  0
 23 54  1  0  0  0  0
 23 55  1  0  0  0  0
 24 56  1  0  0  0  0
 25 57  1  0  0  0  0
 26 58  1  0  0  0  0
 29 59  1  0  0  0  0
 29 60  1  0  0  0  0
 29 61  1  0  0  0  0
 31 62  1  0  0  0  0
 32 63  1  0  0  0  0
 39 64  1  0  0  0  0
 39 65  1  0  0  0  0
 39 66  1  0  0  0  0
 40 67  1  0  0  0  0
 41 68  1  0  0  0  0
 42 69  1  0  0  0  0
 45 70  1  0  0  0  0
 45 71  1  0  0  0  0
 45 72  1  0  0  0  0
 74 75  4  0  0  0  0
 75 76  4  0  0  0  0
 76 77  2  0  0  0  0
 77 78  4  0  0  0  0
 73 79  1  0  0  0  0
 75 79  4  0  0  0  0
 78 79  4  0  0  0  0
 78 80  4  0  0  0  0
 80 81  4  0  0  0  0
 81 82  4  0  0  0  0
 82 83  2  0  0  0  0
 73 84  1  0  0  0  0
 81 84  4  0  0  0  0
 83 85  4  0  0  0  0
 84 85  4  0  0  0  0
 85 86  4  0  0  0  0
 86 87  4  0  0  0  0
 87 88  4  0  0  0  0
 88 89  2  0  0  0  0
 89 90  4  0  0  0  0
 90 91  4  0  0  0  0
 91 92  1  0  0  0  0
 92 93  4  0  0  0  0
 93 94  1  0  0  0  0
 94 95  1  0  0  0  0
 93 96  4  0  0  0  0
 96 97  4  0  0  0  0
 97 98  4  0  0  0  0
 92 99  4  0  0  0  0
 98 99  4  0  0  0  0
 99100  1  0  0  0  0
100101  1  0  0  0  0
 91102  4  0  0  0  0
102103  4  0  0  0  0
103104  2  0  0  0  0
 74105  4  0  0  0  0
104105  4  0  0  0  0
 73106  1  0  0  0  0
102106  4  0  0  0  0
105106  4  0  0  0  0
 73107  1  0  0  0  0
 87107  4  0  0  0  0
 90107  4  0  0  0  0
 80108  1  0  0  0  0
108109  4  0  0  0  0
109110  1  0  0  0  0
110111  1  0  0  0  0
109112  4  0  0  0  0
112113  4  0  0  0  0
113114  4  0  0  0  0
108115  4  0  0  0  0
114115  4  0  0  0  0
115116  1  0  0  0  0
116117  1  0  0  0  0
 74118  1  0  0  0  0
 76119  1  0  0  0  0
 77120  1  0  0  0  0
 82121  1  0  0  0  0
 83122  1  0  0  0  0
 88123  1  0  0  0  0
 89124  1  0  0  0  0
 95125  1  0  0  0  0
 95126  1  0  0  0  0
 95127  1  0  0  0  0
 96128  1  0  0  0  0
 97129  1  0  0  0  0
 98130  1  0  0  0  0
101131  1  0  0  0  0
101132  1  0  0  0  0
101133  1  0  0  0  0
103134  1  0  0  0  0
104135  1  0  0  0  0
111136  1  0  0  0  0
111137  1  0  0  0  0
111138  1  0  0  0  0
112139  1  0  0  0  0
113140  1  0  0  0  0
114141  1  0  0  0  0
117142  1  0  0  0  0
117143  1  0  0  0  0
117144  1  0  0  0  0
 14145  4  0  0  0  0
145146  3  0  0  0  0
146147  4  0  0  0  0
147148  3  0  0  0  0
148149  4  0  0  0  0
149150  3  0  0  0  0
150151  4  0  0  0  0
 86152  4  0  0  0  0
151152  3  0  0  0  0
M  END
