 xtb: 6.5.1 (b24c23e)
          07302204313D

256295  0     0  0            999 V2000
   43.6770    0.0247    0.0437 Ni  0  0  0  0  0  0  0  0  0  0  0  0
   40.2888    0.1038    0.1370 C   0  0  0  0  0  0  0  0  0  0  0  0
   40.9436    1.1286   -0.5146 C   0  0  0  0  0  0  0  0  0  0  0  0
   40.2732    2.1962   -1.1908 C   0  0  0  0  0  0  0  0  0  0  0  0
   41.2341    3.0496   -1.6173 C   0  0  0  0  0  0  0  0  0  0  0  0
   42.4903    2.5112   -1.1851 C   0  0  0  0  0  0  0  0  0  0  0  0
   42.3039    1.3102   -0.5472 N   0  0  0  0  0  0  0  0  0  0  0  0
   43.7089    3.1623   -1.3382 C   0  0  0  0  0  0  0  0  0  0  0  0
   43.7274    4.5129   -1.9450 C   0  0  0  0  0  0  0  0  0  0  0  0
   44.4501    4.7544   -3.1160 C   0  0  0  0  0  0  0  0  0  0  0  0
   44.4679    6.0120   -3.6921 C   0  0  0  0  0  0  0  0  0  0  0  0
   43.7720    7.0665   -3.0951 C   0  0  0  0  0  0  0  0  0  0  0  0
   43.7556    8.3164   -3.6893 N   0  0  0  0  0  0  0  0  0  0  0  0
   43.0449    6.8326   -1.9251 C   0  0  0  0  0  0  0  0  0  0  0  0
   43.0237    5.5692   -1.3614 C   0  0  0  0  0  0  0  0  0  0  0  0
   44.9119    2.5936   -0.9383 C   0  0  0  0  0  0  0  0  0  0  0  0
   46.1726    3.2676   -1.0058 C   0  0  0  0  0  0  0  0  0  0  0  0
   47.1169    2.3727   -0.6260 C   0  0  0  0  0  0  0  0  0  0  0  0
   45.0798    1.3078   -0.4754 N   0  0  0  0  0  0  0  0  0  0  0  0
   46.4308    1.1585   -0.3209 C   0  0  0  0  0  0  0  0  0  0  0  0
   47.0871   -0.0338   -0.0007 C   0  0  0  0  0  0  0  0  0  0  0  0
   46.3990   -1.2074    0.3222 C   0  0  0  0  0  0  0  0  0  0  0  0
   47.0501   -2.4501    0.5864 C   0  0  0  0  0  0  0  0  0  0  0  0
   46.0842   -3.3221    0.9652 C   0  0  0  0  0  0  0  0  0  0  0  0
   44.8465   -2.6036    0.9455 C   0  0  0  0  0  0  0  0  0  0  0  0
   45.0477   -1.3145    0.5047 N   0  0  0  0  0  0  0  0  0  0  0  0
   43.6372   -3.1327    1.3792 C   0  0  0  0  0  0  0  0  0  0  0  0
   43.6200   -4.4963    1.9561 C   0  0  0  0  0  0  0  0  0  0  0  0
   44.3813   -4.7995    3.0877 C   0  0  0  0  0  0  0  0  0  0  0  0
   44.3622   -6.0694    3.6361 C   0  0  0  0  0  0  0  0  0  0  0  0
   43.5881   -7.0746    3.0505 C   0  0  0  0  0  0  0  0  0  0  0  0
   43.5352   -8.3351    3.6194 N   0  0  0  0  0  0  0  0  0  0  0  0
   42.8216   -6.7787    1.9203 C   0  0  0  0  0  0  0  0  0  0  0  0
   42.8385   -5.5033    1.3843 C   0  0  0  0  0  0  0  0  0  0  0  0
   42.4433   -2.4250    1.2983 C   0  0  0  0  0  0  0  0  0  0  0  0
   41.1890   -2.9109    1.7937 C   0  0  0  0  0  0  0  0  0  0  0  0
   40.2488   -2.0022    1.4420 C   0  0  0  0  0  0  0  0  0  0  0  0
   40.9304   -0.9564    0.7433 C   0  0  0  0  0  0  0  0  0  0  0  0
   42.2799   -1.2043    0.6926 N   0  0  0  0  0  0  0  0  0  0  0  0
   39.2058    0.1303    0.1698 H   0  0  0  0  0  0  0  0  0  0  0  0
   39.2042    2.2648   -1.3159 H   0  0  0  0  0  0  0  0  0  0  0  0
   41.1154    3.9627   -2.1778 H   0  0  0  0  0  0  0  0  0  0  0  0
   44.9865    3.9391   -3.5891 H   0  0  0  0  0  0  0  0  0  0  0  0
   45.0226    6.1843   -4.6080 H   0  0  0  0  0  0  0  0  0  0  0  0
   44.5298    8.5050   -4.3058 H   0  0  0  0  0  0  0  0  0  0  0  0
   43.5326    9.0796   -3.0706 H   0  0  0  0  0  0  0  0  0  0  0  0
   42.5008    7.6466   -1.4586 H   0  0  0  0  0  0  0  0  0  0  0  0
   42.4717    5.4002   -0.4433 H   0  0  0  0  0  0  0  0  0  0  0  0
   46.3076    4.2959   -1.2991 H   0  0  0  0  0  0  0  0  0  0  0  0
   48.1842    2.5076   -0.5558 H   0  0  0  0  0  0  0  0  0  0  0  0
   48.1104   -2.6190    0.4881 H   0  0  0  0  0  0  0  0  0  0  0  0
   46.1904   -4.3613    1.2304 H   0  0  0  0  0  0  0  0  0  0  0  0
   44.9773   -4.0223    3.5534 H   0  0  0  0  0  0  0  0  0  0  0  0
   44.9479   -6.2893    4.5220 H   0  0  0  0  0  0  0  0  0  0  0  0
   44.3257   -8.5762    4.1957 H   0  0  0  0  0  0  0  0  0  0  0  0
   43.2450   -9.0722    2.9969 H   0  0  0  0  0  0  0  0  0  0  0  0
   42.2162   -7.5539    1.4633 H   0  0  0  0  0  0  0  0  0  0  0  0
   42.2542   -5.2861    0.4968 H   0  0  0  0  0  0  0  0  0  0  0  0
   41.0579   -3.8285    2.3440 H   0  0  0  0  0  0  0  0  0  0  0  0
   39.1869   -2.0209    1.6296 H   0  0  0  0  0  0  0  0  0  0  0  0
   91.6924   -0.0162    0.0539 Ni  0  0  0  0  0  0  0  0  0  0  0  0
   95.0810    0.0175    0.1743 C   0  0  0  0  0  0  0  0  0  0  0  0
   94.4257   -1.0901    0.6714 C   0  0  0  0  0  0  0  0  0  0  0  0
   95.0963   -2.2410    1.1931 C   0  0  0  0  0  0  0  0  0  0  0  0
   94.1351   -3.0682    1.6679 C   0  0  0  0  0  0  0  0  0  0  0  0
   92.8786   -2.4134    1.4515 C   0  0  0  0  0  0  0  0  0  0  0  0
   93.0651   -1.2190    0.8012 N   0  0  0  0  0  0  0  0  0  0  0  0
   91.6590   -2.9045    1.9026 C   0  0  0  0  0  0  0  0  0  0  0  0
   91.6407   -4.1563    2.6937 C   0  0  0  0  0  0  0  0  0  0  0  0
   90.9265   -5.2695    2.2439 C   0  0  0  0  0  0  0  0  0  0  0  0
   90.9096   -6.4442    2.9746 C   0  0  0  0  0  0  0  0  0  0  0  0
   91.5978   -6.5251    4.1880 C   0  0  0  0  0  0  0  0  0  0  0  0
   91.6154   -7.7104    4.9023 N   0  0  0  0  0  0  0  0  0  0  0  0
   92.3164   -5.4167    4.6436 C   0  0  0  0  0  0  0  0  0  0  0  0
   92.3368   -4.2492    3.9014 C   0  0  0  0  0  0  0  0  0  0  0  0
   90.4552   -2.2615    1.6422 C   0  0  0  0  0  0  0  0  0  0  0  0
   89.1929   -2.6967    2.1573 C   0  0  0  0  0  0  0  0  0  0  0  0
   88.2490   -1.8869    1.6189 C   0  0  0  0  0  0  0  0  0  0  0  0
   90.2885   -1.1630    0.8290 N   0  0  0  0  0  0  0  0  0  0  0  0
   88.9370   -0.9555    0.7836 C   0  0  0  0  0  0  0  0  0  0  0  0
   88.2821   -0.0232   -0.0263 C   0  0  0  0  0  0  0  0  0  0  0  0
   88.9705    0.9022   -0.8163 C   0  0  0  0  0  0  0  0  0  0  0  0
   88.3192    1.8161   -1.6986 C   0  0  0  0  0  0  0  0  0  0  0  0
   89.2855    2.6152   -2.2128 C   0  0  0  0  0  0  0  0  0  0  0  0
   90.5236    2.1957   -1.6301 C   0  0  0  0  0  0  0  0  0  0  0  0
   90.3222    1.1118   -0.8048 N   0  0  0  0  0  0  0  0  0  0  0  0
   91.7340    2.8465   -1.8337 C   0  0  0  0  0  0  0  0  0  0  0  0
   91.7525    4.0822   -2.6495 C   0  0  0  0  0  0  0  0  0  0  0  0
   90.9982    5.1958   -2.2718 C   0  0  0  0  0  0  0  0  0  0  0  0
   91.0189    6.3555   -3.0259 C   0  0  0  0  0  0  0  0  0  0  0  0
   91.7876    6.4209   -4.1910 C   0  0  0  0  0  0  0  0  0  0  0  0
   91.8424    7.5923   -4.9259 N   0  0  0  0  0  0  0  0  0  0  0  0
   92.5471    5.3123   -4.5740 C   0  0  0  0  0  0  0  0  0  0  0  0
   92.5287    4.1600   -3.8086 C   0  0  0  0  0  0  0  0  0  0  0  0
   92.9284    2.3837   -1.2934 C   0  0  0  0  0  0  0  0  0  0  0  0
   94.1839    3.0623   -1.4278 C   0  0  0  0  0  0  0  0  0  0  0  0
   95.1235    2.2657   -0.8657 C   0  0  0  0  0  0  0  0  0  0  0  0
   94.4403    1.1075   -0.3777 C   0  0  0  0  0  0  0  0  0  0  0  0
   93.0907    1.2042   -0.6107 N   0  0  0  0  0  0  0  0  0  0  0  0
   96.1640    0.0299    0.2153 H   0  0  0  0  0  0  0  0  0  0  0  0
   96.1655   -2.3814    1.1850 H   0  0  0  0  0  0  0  0  0  0  0  0
   94.2540   -4.0383    2.1224 H   0  0  0  0  0  0  0  0  0  0  0  0
   90.3963   -5.2167    1.2993 H   0  0  0  0  0  0  0  0  0  0  0  0
   90.3615   -7.3056    2.6090 H   0  0  0  0  0  0  0  0  0  0  0  0
   90.8454   -8.3324    4.7145 H   0  0  0  0  0  0  0  0  0  0  0  0
   91.8319   -7.6147    5.8816 H   0  0  0  0  0  0  0  0  0  0  0  0
   92.8547   -5.4744    5.5834 H   0  0  0  0  0  0  0  0  0  0  0  0
   92.8821   -3.3877    4.2709 H   0  0  0  0  0  0  0  0  0  0  0  0
   89.0566   -3.5125    2.8483 H   0  0  0  0  0  0  0  0  0  0  0  0
   87.1809   -1.9071    1.7639 H   0  0  0  0  0  0  0  0  0  0  0  0
   87.2587    1.8303   -1.8919 H   0  0  0  0  0  0  0  0  0  0  0  0
   89.1793    3.4152   -2.9272 H   0  0  0  0  0  0  0  0  0  0  0  0
   90.4064    5.1562   -1.3639 H   0  0  0  0  0  0  0  0  0  0  0  0
   90.4386    7.2177   -2.7158 H   0  0  0  0  0  0  0  0  0  0  0  0
   91.0552    8.2092   -4.8040 H   0  0  0  0  0  0  0  0  0  0  0  0
   92.1274    7.4806   -5.8858 H   0  0  0  0  0  0  0  0  0  0  0  0
   93.1483    5.3581   -5.4756 H   0  0  0  0  0  0  0  0  0  0  0  0
   93.1076    3.2980   -4.1219 H   0  0  0  0  0  0  0  0  0  0  0  0
   94.3161    4.0273   -1.8896 H   0  0  0  0  0  0  0  0  0  0  0  0
   96.1858    2.4304   -0.7796 H   0  0  0  0  0  0  0  0  0  0  0  0
   52.2882   -0.0764   -0.0251 C   0  0  0  0  0  0  0  0  0  0  0  0
   51.0600   -0.0757   -0.0175 C   0  0  0  0  0  0  0  0  0  0  0  0
   49.7152   -0.0654   -0.0145 C   0  0  0  0  0  0  0  0  0  0  0  0
   48.4915   -0.0542   -0.0091 C   0  0  0  0  0  0  0  0  0  0  0  0
   53.6330   -0.0777   -0.0237 C   0  0  0  0  0  0  0  0  0  0  0  0
   54.8568   -0.0741   -0.0214 C   0  0  0  0  0  0  0  0  0  0  0  0
   68.2971   -0.0559   -0.0583 C   0  0  0  0  0  0  0  0  0  0  0  0
   67.0689   -0.0574   -0.0549 C   0  0  0  0  0  0  0  0  0  0  0  0
   65.7242   -0.0576   -0.0462 C   0  0  0  0  0  0  0  0  0  0  0  0
   64.5003   -0.0567   -0.0357 C   0  0  0  0  0  0  0  0  0  0  0  0
   69.6418   -0.0517   -0.0567 C   0  0  0  0  0  0  0  0  0  0  0  0
   70.8657   -0.0449   -0.0501 C   0  0  0  0  0  0  0  0  0  0  0  0
   84.3084   -0.0141   -0.0675 C   0  0  0  0  0  0  0  0  0  0  0  0
   83.0804   -0.0165   -0.0739 C   0  0  0  0  0  0  0  0  0  0  0  0
   81.7352   -0.0164   -0.0678 C   0  0  0  0  0  0  0  0  0  0  0  0
   80.5116   -0.0201   -0.0565 C   0  0  0  0  0  0  0  0  0  0  0  0
   85.6537   -0.0161   -0.0593 C   0  0  0  0  0  0  0  0  0  0  0  0
   86.8772   -0.0186   -0.0488 C   0  0  0  0  0  0  0  0  0  0  0  0
   59.6788   -0.0541    0.0130 Ni  0  0  0  0  0  0  0  0  0  0  0  0
   56.2611   -0.0697   -0.0156 C   0  0  0  0  0  0  0  0  0  0  0  0
   56.9316    1.0609   -0.4922 C   0  0  0  0  0  0  0  0  0  0  0  0
   56.2534    2.2184   -0.9800 C   0  0  0  0  0  0  0  0  0  0  0  0
   57.2051    3.1509   -1.2268 C   0  0  0  0  0  0  0  0  0  0  0  0
   58.4640    2.5544   -0.9006 C   0  0  0  0  0  0  0  0  0  0  0  0
   58.2845    1.2599   -0.4662 N   0  0  0  0  0  0  0  0  0  0  0  0
   59.6711    3.2409   -0.9250 C   0  0  0  0  0  0  0  0  0  0  0  0
   59.6682    4.6704   -1.3209 C   0  0  0  0  0  0  0  0  0  0  0  0
   59.3078    5.0500   -2.6153 C   0  0  0  0  0  0  0  0  0  0  0  0
   59.3085    6.3827   -2.9883 C   0  0  0  0  0  0  0  0  0  0  0  0
   59.6578    7.3696   -2.0631 C   0  0  0  0  0  0  0  0  0  0  0  0
   59.6983    8.6998   -2.4436 N   0  0  0  0  0  0  0  0  0  0  0  0
   60.0239    6.9962   -0.7674 C   0  0  0  0  0  0  0  0  0  0  0  0
   60.0294    5.6607   -0.4051 C   0  0  0  0  0  0  0  0  0  0  0  0
   60.8824    2.6448   -0.5997 C   0  0  0  0  0  0  0  0  0  0  0  0
   62.1405    3.3240   -0.6579 C   0  0  0  0  0  0  0  0  0  0  0  0
   63.0978    2.3983   -0.4080 C   0  0  0  0  0  0  0  0  0  0  0  0
   61.0681    1.3136   -0.2991 N   0  0  0  0  0  0  0  0  0  0  0  0
   62.4232    1.1570   -0.2033 C   0  0  0  0  0  0  0  0  0  0  0  0
   63.0962   -0.0541   -0.0145 C   0  0  0  0  0  0  0  0  0  0  0  0
   62.4252   -1.2619    0.1999 C   0  0  0  0  0  0  0  0  0  0  0  0
   63.0983   -2.5096    0.3662 C   0  0  0  0  0  0  0  0  0  0  0  0
   62.1453   -3.4295    0.6535 C   0  0  0  0  0  0  0  0  0  0  0  0
   60.8937   -2.7367    0.6708 C   0  0  0  0  0  0  0  0  0  0  0  0
   61.0740   -1.4098    0.3502 N   0  0  0  0  0  0  0  0  0  0  0  0
   59.6861   -3.3324    1.0127 C   0  0  0  0  0  0  0  0  0  0  0  0
   59.6922   -4.7459    1.4547 C   0  0  0  0  0  0  0  0  0  0  0  0
   58.9746   -5.7166    0.7517 C   0  0  0  0  0  0  0  0  0  0  0  0
   58.9826   -7.0384    1.1601 C   0  0  0  0  0  0  0  0  0  0  0  0
   59.7002   -7.4167    2.2979 C   0  0  0  0  0  0  0  0  0  0  0  0
   59.7421   -8.7436    2.6871 N   0  0  0  0  0  0  0  0  0  0  0  0
   60.4236   -6.4521    3.0042 C   0  0  0  0  0  0  0  0  0  0  0  0
   60.4191   -5.1345    2.5827 C   0  0  0  0  0  0  0  0  0  0  0  0
   58.4738   -2.6567    0.9517 C   0  0  0  0  0  0  0  0  0  0  0  0
   57.2216   -3.2321    1.3357 C   0  0  0  0  0  0  0  0  0  0  0  0
   56.2634   -2.3223    1.0336 C   0  0  0  0  0  0  0  0  0  0  0  0
   56.9343   -1.1894    0.4828 C   0  0  0  0  0  0  0  0  0  0  0  0
   58.2881   -1.3814    0.4664 N   0  0  0  0  0  0  0  0  0  0  0  0
   55.1847    2.2985   -1.0967 H   0  0  0  0  0  0  0  0  0  0  0  0
   57.0733    4.1596   -1.5825 H   0  0  0  0  0  0  0  0  0  0  0  0
   59.0430    4.2887   -3.3408 H   0  0  0  0  0  0  0  0  0  0  0  0
   59.0372    6.6655   -3.9995 H   0  0  0  0  0  0  0  0  0  0  0  0
   59.1273    8.9325   -3.2403 H   0  0  0  0  0  0  0  0  0  0  0  0
   59.6307    9.3615   -1.6870 H   0  0  0  0  0  0  0  0  0  0  0  0
   60.3005    7.7575   -0.0462 H   0  0  0  0  0  0  0  0  0  0  0  0
   60.2999    5.3790    0.6066 H   0  0  0  0  0  0  0  0  0  0  0  0
   62.2674    4.3705   -0.8815 H   0  0  0  0  0  0  0  0  0  0  0  0
   64.1677    2.5267   -0.3747 H   0  0  0  0  0  0  0  0  0  0  0  0
   64.1632   -2.6485    0.2723 H   0  0  0  0  0  0  0  0  0  0  0  0
   62.2692   -4.4852    0.8312 H   0  0  0  0  0  0  0  0  0  0  0  0
   58.4225   -5.4325   -0.1375 H   0  0  0  0  0  0  0  0  0  0  0  0
   58.4315   -7.7853    0.5992 H   0  0  0  0  0  0  0  0  0  0  0  0
   59.9849   -8.8984    3.6524 H   0  0  0  0  0  0  0  0  0  0  0  0
   58.9732   -9.3085    2.3636 H   0  0  0  0  0  0  0  0  0  0  0  0
   60.9855   -6.7403    3.8859 H   0  0  0  0  0  0  0  0  0  0  0  0
   60.9695   -4.3884    3.1455 H   0  0  0  0  0  0  0  0  0  0  0  0
   57.1001   -4.2051    1.7829 H   0  0  0  0  0  0  0  0  0  0  0  0
   55.1965   -2.3964    1.1694 H   0  0  0  0  0  0  0  0  0  0  0  0
   75.6885   -0.0175    0.0006 Ni  0  0  0  0  0  0  0  0  0  0  0  0
   72.2700   -0.0379   -0.0397 C   0  0  0  0  0  0  0  0  0  0  0  0
   72.9399    1.1004   -0.4981 C   0  0  0  0  0  0  0  0  0  0  0  0
   72.2599    2.2644   -0.9682 C   0  0  0  0  0  0  0  0  0  0  0  0
   73.2107    3.1994   -1.2070 C   0  0  0  0  0  0  0  0  0  0  0  0
   74.4709    2.5978   -0.8952 C   0  0  0  0  0  0  0  0  0  0  0  0
   74.2927    1.2988   -0.4733 N   0  0  0  0  0  0  0  0  0  0  0  0
   75.6792    3.2812   -0.9294 C   0  0  0  0  0  0  0  0  0  0  0  0
   75.6758    4.7118   -1.3211 C   0  0  0  0  0  0  0  0  0  0  0  0
   75.2972    5.0961   -2.6089 C   0  0  0  0  0  0  0  0  0  0  0  0
   75.2973    6.4296   -2.9787 C   0  0  0  0  0  0  0  0  0  0  0  0
   75.6761    7.4118   -2.0601 C   0  0  0  0  0  0  0  0  0  0  0  0
   75.6304    8.7500   -2.4108 N   0  0  0  0  0  0  0  0  0  0  0  0
   76.0447    7.0351   -0.7662 C   0  0  0  0  0  0  0  0  0  0  0  0
   76.0505    5.6987   -0.4072 C   0  0  0  0  0  0  0  0  0  0  0  0
   76.8929    2.6808   -0.6206 C   0  0  0  0  0  0  0  0  0  0  0  0
   78.1517    3.3570   -0.6951 C   0  0  0  0  0  0  0  0  0  0  0  0
   79.1096    2.4302   -0.4515 C   0  0  0  0  0  0  0  0  0  0  0  0
   77.0786    1.3503   -0.3182 N   0  0  0  0  0  0  0  0  0  0  0  0
   78.4343    1.1916   -0.2333 C   0  0  0  0  0  0  0  0  0  0  0  0
   79.1070   -0.0174   -0.0329 C   0  0  0  0  0  0  0  0  0  0  0  0
   78.4369   -1.2220    0.1997 C   0  0  0  0  0  0  0  0  0  0  0  0
   79.1119   -2.4659    0.3850 C   0  0  0  0  0  0  0  0  0  0  0  0
   78.1596   -3.3841    0.6798 C   0  0  0  0  0  0  0  0  0  0  0  0
   76.9064   -2.6942    0.6810 C   0  0  0  0  0  0  0  0  0  0  0  0
   77.0852   -1.3707    0.3470 N   0  0  0  0  0  0  0  0  0  0  0  0
   75.6973   -3.2926    1.0137 C   0  0  0  0  0  0  0  0  0  0  0  0
   75.7049   -4.7026    1.4671 C   0  0  0  0  0  0  0  0  0  0  0  0
   75.0011   -5.6834    0.7641 C   0  0  0  0  0  0  0  0  0  0  0  0
   75.0096   -7.0012    1.1853 C   0  0  0  0  0  0  0  0  0  0  0  0
   75.7239   -7.3674    2.3291 C   0  0  0  0  0  0  0  0  0  0  0  0
   75.6936   -8.6744    2.7822 N   0  0  0  0  0  0  0  0  0  0  0  0
   76.4207   -6.3898    3.0444 C   0  0  0  0  0  0  0  0  0  0  0  0
   76.4156   -5.0763    2.6103 C   0  0  0  0  0  0  0  0  0  0  0  0
   74.4829   -2.6233    0.9336 C   0  0  0  0  0  0  0  0  0  0  0  0
   73.2285   -3.2052    1.3008 C   0  0  0  0  0  0  0  0  0  0  0  0
   72.2703   -2.2993    0.9885 C   0  0  0  0  0  0  0  0  0  0  0  0
   72.9431   -1.1615    0.4499 C   0  0  0  0  0  0  0  0  0  0  0  0
   74.2976   -1.3482    0.4472 N   0  0  0  0  0  0  0  0  0  0  0  0
   71.1907    2.3461   -1.0792 H   0  0  0  0  0  0  0  0  0  0  0  0
   73.0777    4.2127   -1.5488 H   0  0  0  0  0  0  0  0  0  0  0  0
   75.0176    4.3376   -3.3319 H   0  0  0  0  0  0  0  0  0  0  0  0
   75.0068    6.7163   -3.9835 H   0  0  0  0  0  0  0  0  0  0  0  0
   75.6841    8.9330   -3.4001 H   0  0  0  0  0  0  0  0  0  0  0  0
   76.2100    9.3565   -1.8529 H   0  0  0  0  0  0  0  0  0  0  0  0
   76.3271    7.7942   -0.0450 H   0  0  0  0  0  0  0  0  0  0  0  0
   76.3314    5.4137    0.6008 H   0  0  0  0  0  0  0  0  0  0  0  0
   78.2783    4.4024   -0.9241 H   0  0  0  0  0  0  0  0  0  0  0  0
   80.1800    2.5566   -0.4294 H   0  0  0  0  0  0  0  0  0  0  0  0
   80.1776   -2.6036    0.2976 H   0  0  0  0  0  0  0  0  0  0  0  0
   78.2848   -4.4372    0.8716 H   0  0  0  0  0  0  0  0  0  0  0  0
   74.4588   -5.4103   -0.1346 H   0  0  0  0  0  0  0  0  0  0  0  0
   74.4649   -7.7551    0.6275 H   0  0  0  0  0  0  0  0  0  0  0  0
   76.4599   -8.9361    3.3815 H   0  0  0  0  0  0  0  0  0  0  0  0
   75.4692   -9.3637    2.0826 H   0  0  0  0  0  0  0  0  0  0  0  0
   76.9658   -6.6656    3.9404 H   0  0  0  0  0  0  0  0  0  0  0  0
   76.9520   -4.3216    3.1751 H   0  0  0  0  0  0  0  0  0  0  0  0
   73.1056   -4.1793    1.7449 H   0  0  0  0  0  0  0  0  0  0  0  0
   71.2021   -2.3782    1.1111 H   0  0  0  0  0  0  0  0  0  0  0  0
  2  3  4  0  0  0  0
  3  4  4  0  0  0  0
  4  5  2  0  0  0  0
  5  6  4  0  0  0  0
  1  7  1  0  0  0  0
  3  7  4  0  0  0  0
  6  7  4  0  0  0  0
  6  8  4  0  0  0  0
  8  9  1  0  0  0  0
  9 10  4  0  0  0  0
 10 11  4  0  0  0  0
 11 12  4  0  0  0  0
 12 13  1  0  0  0  0
 12 14  4  0  0  0  0
  9 15  4  0  0  0  0
 14 15  4  0  0  0  0
  8 16  4  0  0  0  0
 16 17  4  0  0  0  0
 17 18  2  0  0  0  0
  1 19  1  0  0  0  0
 16 19  4  0  0  0  0
 18 20  4  0  0  0  0
 19 20  4  0  0  0  0
 20 21  4  0  0  0  0
 21 22  4  0  0  0  0
 22 23  4  0  0  0  0
 23 24  2  0  0  0  0
 24 25  4  0  0  0  0
  1 26  1  0  0  0  0
 22 26  4  0  0  0  0
 25 26  4  0  0  0  0
 25 27  4  0  0  0  0
 27 28  1  0  0  0  0
 28 29  4  0  0  0  0
 29 30  4  0  0  0  0
 30 31  4  0  0  0  0
 31 32  1  0  0  0  0
 31 33  4  0  0  0  0
 28 34  4  0  0  0  0
 33 34  4  0  0  0  0
 27 35  4  0  0  0  0
 35 36  4  0  0  0  0
 36 37  2  0  0  0  0
  2 38  4  0  0  0  0
 37 38  4  0  0  0  0
  1 39  1  0  0  0  0
 35 39  4  0  0  0  0
 38 39  4  0  0  0  0
  2 40  1  0  0  0  0
  4 41  1  0  0  0  0
  5 42  1  0  0  0  0
 10 43  1  0  0  0  0
 11 44  1  0  0  0  0
 13 45  1  0  0  0  0
 13 46  1  0  0  0  0
 14 47  1  0  0  0  0
 15 48  1  0  0  0  0
 17 49  1  0  0  0  0
 18 50  1  0  0  0  0
 23 51  1  0  0  0  0
 24 52  1  0  0  0  0
 29 53  1  0  0  0  0
 30 54  1  0  0  0  0
 32 55  1  0  0  0  0
 32 56  1  0  0  0  0
 33 57  1  0  0  0  0
 34 58  1  0  0  0  0
 36 59  1  0  0  0  0
 37 60  1  0  0  0  0
 62 63  4  0  0  0  0
 63 64  4  0  0  0  0
 64 65  2  0  0  0  0
 65 66  4  0  0  0  0
 61 67  1  0  0  0  0
 63 67  4  0  0  0  0
 66 67  4  0  0  0  0
 66 68  4  0  0  0  0
 68 69  1  0  0  0  0
 69 70  4  0  0  0  0
 70 71  4  0  0  0  0
 71 72  4  0  0  0  0
 72 73  1  0  0  0  0
 72 74  4  0  0  0  0
 69 75  4  0  0  0  0
 74 75  4  0  0  0  0
 68 76  4  0  0  0  0
 76 77  4  0  0  0  0
 77 78  2  0  0  0  0
 61 79  1  0  0  0  0
 76 79  4  0  0  0  0
 78 80  4  0  0  0  0
 79 80  4  0  0  0  0
 80 81  4  0  0  0  0
 81 82  4  0  0  0  0
 82 83  4  0  0  0  0
 83 84  2  0  0  0  0
 84 85  4  0  0  0  0
 61 86  1  0  0  0  0
 82 86  4  0  0  0  0
 85 86  4  0  0  0  0
 85 87  4  0  0  0  0
 87 88  1  0  0  0  0
 88 89  4  0  0  0  0
 89 90  4  0  0  0  0
 90 91  4  0  0  0  0
 91 92  1  0  0  0  0
 91 93  4  0  0  0  0
 88 94  4  0  0  0  0
 93 94  4  0  0  0  0
 87 95  4  0  0  0  0
 95 96  4  0  0  0  0
 96 97  2  0  0  0  0
 62 98  4  0  0  0  0
 97 98  4  0  0  0  0
 61 99  1  0  0  0  0
 95 99  4  0  0  0  0
 98 99  4  0  0  0  0
 62100  1  0  0  0  0
 64101  1  0  0  0  0
 65102  1  0  0  0  0
 70103  1  0  0  0  0
 71104  1  0  0  0  0
 73105  1  0  0  0  0
 73106  1  0  0  0  0
 74107  1  0  0  0  0
 75108  1  0  0  0  0
 77109  1  0  0  0  0
 78110  1  0  0  0  0
 83111  1  0  0  0  0
 84112  1  0  0  0  0
 89113  1  0  0  0  0
 90114  1  0  0  0  0
 92115  1  0  0  0  0
 92116  1  0  0  0  0
 93117  1  0  0  0  0
 94118  1  0  0  0  0
 96119  1  0  0  0  0
 97120  1  0  0  0  0
121122  3  0  0  0  0
122123  4  0  0  0  0
 21124  4  0  0  0  0
123124  3  0  0  0  0
121125  4  0  0  0  0
125126  3  0  0  0  0
127128  3  0  0  0  0
128129  4  0  0  0  0
129130  3  0  0  0  0
127131  4  0  0  0  0
131132  3  0  0  0  0
133134  3  0  0  0  0
134135  4  0  0  0  0
135136  3  0  0  0  0
133137  4  0  0  0  0
 81138  4  0  0  0  0
137138  3  0  0  0  0
126140  4  0  0  0  0
140141  4  0  0  0  0
141142  4  0  0  0  0
142143  2  0  0  0  0
143144  4  0  0  0  0
139145  1  0  0  0  0
141145  4  0  0  0  0
144145  4  0  0  0  0
144146  4  0  0  0  0
146147  1  0  0  0  0
147148  4  0  0  0  0
148149  4  0  0  0  0
149150  4  0  0  0  0
150151  1  0  0  0  0
150152  4  0  0  0  0
147153  4  0  0  0  0
152153  4  0  0  0  0
146154  4  0  0  0  0
154155  4  0  0  0  0
155156  2  0  0  0  0
139157  1  0  0  0  0
154157  4  0  0  0  0
156158  4  0  0  0  0
157158  4  0  0  0  0
130159  4  0  0  0  0
158159  4  0  0  0  0
159160  4  0  0  0  0
160161  4  0  0  0  0
161162  2  0  0  0  0
162163  4  0  0  0  0
139164  1  0  0  0  0
160164  4  0  0  0  0
163164  4  0  0  0  0
163165  4  0  0  0  0
165166  1  0  0  0  0
166167  4  0  0  0  0
167168  4  0  0  0  0
168169  4  0  0  0  0
169170  1  0  0  0  0
169171  4  0  0  0  0
166172  4  0  0  0  0
171172  4  0  0  0  0
165173  4  0  0  0  0
173174  4  0  0  0  0
174175  2  0  0  0  0
140176  4  0  0  0  0
175176  4  0  0  0  0
139177  1  0  0  0  0
173177  4  0  0  0  0
176177  4  0  0  0  0
142178  1  0  0  0  0
143179  1  0  0  0  0
148180  1  0  0  0  0
149181  1  0  0  0  0
151182  1  0  0  0  0
151183  1  0  0  0  0
152184  1  0  0  0  0
153185  1  0  0  0  0
155186  1  0  0  0  0
156187  1  0  0  0  0
161188  1  0  0  0  0
162189  1  0  0  0  0
167190  1  0  0  0  0
168191  1  0  0  0  0
170192  1  0  0  0  0
170193  1  0  0  0  0
171194  1  0  0  0  0
172195  1  0  0  0  0
174196  1  0  0  0  0
175197  1  0  0  0  0
132199  4  0  0  0  0
199200  4  0  0  0  0
200201  4  0  0  0  0
201202  2  0  0  0  0
202203  4  0  0  0  0
198204  1  0  0  0  0
200204  4  0  0  0  0
203204  4  0  0  0  0
203205  4  0  0  0  0
205206  1  0  0  0  0
206207  4  0  0  0  0
207208  4  0  0  0  0
208209  4  0  0  0  0
209210  1  0  0  0  0
209211  4  0  0  0  0
206212  4  0  0  0  0
211212  4  0  0  0  0
205213  4  0  0  0  0
213214  4  0  0  0  0
214215  2  0  0  0  0
198216  1  0  0  0  0
213216  4  0  0  0  0
215217  4  0  0  0  0
216217  4  0  0  0  0
136218  4  0  0  0  0
217218  4  0  0  0  0
218219  4  0  0  0  0
219220  4  0  0  0  0
220221  2  0  0  0  0
221222  4  0  0  0  0
198223  1  0  0  0  0
219223  4  0  0  0  0
222223  4  0  0  0  0
222224  4  0  0  0  0
224225  1  0  0  0  0
225226  4  0  0  0  0
226227  4  0  0  0  0
227228  4  0  0  0  0
228229  1  0  0  0  0
228230  4  0  0  0  0
225231  4  0  0  0  0
230231  4  0  0  0  0
224232  4  0  0  0  0
232233  4  0  0  0  0
233234  2  0  0  0  0
199235  4  0  0  0  0
234235  4  0  0  0  0
198236  1  0  0  0  0
232236  4  0  0  0  0
235236  4  0  0  0  0
201237  1  0  0  0  0
202238  1  0  0  0  0
207239  1  0  0  0  0
208240  1  0  0  0  0
210241  1  0  0  0  0
210242  1  0  0  0  0
211243  1  0  0  0  0
212244  1  0  0  0  0
214245  1  0  0  0  0
215246  1  0  0  0  0
220247  1  0  0  0  0
221248  1  0  0  0  0
226249  1  0  0  0  0
227250  1  0  0  0  0
229251  1  0  0  0  0
229252  1  0  0  0  0
230253  1  0  0  0  0
231254  1  0  0  0  0
233255  1  0  0  0  0
234256  1  0  0  0  0
M  END
