 xtb: 6.5.1 (b24c23e)
          07302208273D

256303  0     0  0            999 V2000
   44.5620   -0.0058   -0.0498 Cu  0  0  0  0  0  0  0  0  0  0  0  0
   41.1550   -0.0333   -0.0844 C   0  0  0  0  0  0  0  0  0  0  0  0
   41.7913   -1.2504   -0.2730 C   0  0  0  0  0  0  0  0  0  0  0  0
   41.1170   -2.5064   -0.4372 C   0  0  0  0  0  0  0  0  0  0  0  0
   42.0760   -3.4514   -0.5948 C   0  0  0  0  0  0  0  0  0  0  0  0
   43.3457   -2.7779   -0.5402 C   0  0  0  0  0  0  0  0  0  0  0  0
   43.1423   -1.4443   -0.3352 N   0  0  0  0  0  0  0  0  0  0  0  0
   44.5919   -3.4000   -0.6522 C   0  0  0  0  0  0  0  0  0  0  0  0
   44.6010   -4.8591   -0.9128 C   0  0  0  0  0  0  0  0  0  0  0  0
   45.1803   -5.7391    0.0063 C   0  0  0  0  0  0  0  0  0  0  0  0
   45.1793   -7.1021   -0.2285 C   0  0  0  0  0  0  0  0  0  0  0  0
   44.5987   -7.5896   -1.3960 C   0  0  0  0  0  0  0  0  0  0  0  0
   44.5935   -9.0198   -1.6470 N   0  0  0  0  0  0  0  0  0  0  0  0
   44.0754   -9.4056   -2.6636 O   0  0  0  0  0  0  0  0  0  0  0  0
   45.1069   -9.7326   -0.8232 O   0  0  0  0  0  0  0  0  0  0  0  0
   44.0213   -6.7302   -2.3264 C   0  0  0  0  0  0  0  0  0  0  0  0
   44.0229   -5.3696   -2.0793 C   0  0  0  0  0  0  0  0  0  0  0  0
   45.8262   -2.7560   -0.5389 C   0  0  0  0  0  0  0  0  0  0  0  0
   47.1029   -3.3877   -0.7173 C   0  0  0  0  0  0  0  0  0  0  0  0
   48.0483   -2.4301   -0.5422 C   0  0  0  0  0  0  0  0  0  0  0  0
   46.0133   -1.4258   -0.2722 N   0  0  0  0  0  0  0  0  0  0  0  0
   47.3570   -1.2070   -0.2649 C   0  0  0  0  0  0  0  0  0  0  0  0
   47.9930    0.0229   -0.0205 C   0  0  0  0  0  0  0  0  0  0  0  0
   47.3325    1.2417    0.2147 C   0  0  0  0  0  0  0  0  0  0  0  0
   47.9985    2.4754    0.5061 C   0  0  0  0  0  0  0  0  0  0  0  0
   47.0344    3.4166    0.6680 C   0  0  0  0  0  0  0  0  0  0  0  0
   45.7716    2.7641    0.4666 C   0  0  0  0  0  0  0  0  0  0  0  0
   45.9854    1.4378    0.2003 N   0  0  0  0  0  0  0  0  0  0  0  0
   44.5249    3.3871    0.5593 C   0  0  0  0  0  0  0  0  0  0  0  0
   44.5040    4.8449    0.8267 C   0  0  0  0  0  0  0  0  0  0  0  0
   43.8950    5.3386    1.9847 C   0  0  0  0  0  0  0  0  0  0  0  0
   43.8647    6.6975    2.2391 C   0  0  0  0  0  0  0  0  0  0  0  0
   44.4444    7.5721    1.3244 C   0  0  0  0  0  0  0  0  0  0  0  0
   44.4091    9.0006    1.5829 N   0  0  0  0  0  0  0  0  0  0  0  0
   43.8658    9.3713    2.5919 O   0  0  0  0  0  0  0  0  0  0  0  0
   44.9256    9.7269    0.7730 O   0  0  0  0  0  0  0  0  0  0  0  0
   45.0555    7.1015    0.1656 C   0  0  0  0  0  0  0  0  0  0  0  0
   45.0849    5.7401   -0.0765 C   0  0  0  0  0  0  0  0  0  0  0  0
   43.2915    2.7451    0.4208 C   0  0  0  0  0  0  0  0  0  0  0  0
   42.0102    3.3980    0.4505 C   0  0  0  0  0  0  0  0  0  0  0  0
   41.0700    2.4383    0.2706 C   0  0  0  0  0  0  0  0  0  0  0  0
   41.7676    1.1936    0.1180 C   0  0  0  0  0  0  0  0  0  0  0  0
   43.1138    1.4090    0.2085 N   0  0  0  0  0  0  0  0  0  0  0  0
   40.0701   -0.0420   -0.0958 H   0  0  0  0  0  0  0  0  0  0  0  0
   40.0464   -2.6353   -0.4212 H   0  0  0  0  0  0  0  0  0  0  0  0
   41.9424   -4.5134   -0.7232 H   0  0  0  0  0  0  0  0  0  0  0  0
   45.6171   -5.3483    0.9178 H   0  0  0  0  0  0  0  0  0  0  0  0
   45.6187   -7.7925    0.4814 H   0  0  0  0  0  0  0  0  0  0  0  0
   43.5800   -7.1344   -3.2295 H   0  0  0  0  0  0  0  0  0  0  0  0
   43.5862   -4.6890   -2.8008 H   0  0  0  0  0  0  0  0  0  0  0  0
   47.2531   -4.4269   -0.9609 H   0  0  0  0  0  0  0  0  0  0  0  0
   49.1200   -2.5318   -0.6015 H   0  0  0  0  0  0  0  0  0  0  0  0
   49.0673    2.5947    0.5832 H   0  0  0  0  0  0  0  0  0  0  0  0
   47.1631    4.4576    0.9164 H   0  0  0  0  0  0  0  0  0  0  0  0
   43.4566    4.6463    2.6940 H   0  0  0  0  0  0  0  0  0  0  0  0
   43.3993    7.0887    3.1357 H   0  0  0  0  0  0  0  0  0  0  0  0
   45.4958    7.8035   -0.5322 H   0  0  0  0  0  0  0  0  0  0  0  0
   45.5456    5.3622   -0.9818 H   0  0  0  0  0  0  0  0  0  0  0  0
   41.8569    4.4574    0.5785 H   0  0  0  0  0  0  0  0  0  0  0  0
   39.9981    2.5501    0.2325 H   0  0  0  0  0  0  0  0  0  0  0  0
   92.7126    0.0541   -0.0243 Cu  0  0  0  0  0  0  0  0  0  0  0  0
   96.1193    0.0911   -0.0665 C   0  0  0  0  0  0  0  0  0  0  0  0
   95.4852    1.2907    0.2177 C   0  0  0  0  0  0  0  0  0  0  0  0
   96.1618    2.5164    0.5322 C   0  0  0  0  0  0  0  0  0  0  0  0
   95.2045    3.4524    0.7441 C   0  0  0  0  0  0  0  0  0  0  0  0
   93.9334    2.8085    0.5479 C   0  0  0  0  0  0  0  0  0  0  0  0
   94.1344    1.4947    0.2390 N   0  0  0  0  0  0  0  0  0  0  0  0
   92.6882    3.4289    0.6789 C   0  0  0  0  0  0  0  0  0  0  0  0
   92.6808    4.8795    0.9830 C   0  0  0  0  0  0  0  0  0  0  0  0
   92.1023    5.3517    2.1651 C   0  0  0  0  0  0  0  0  0  0  0  0
   92.1046    6.7033    2.4580 C   0  0  0  0  0  0  0  0  0  0  0  0
   92.6857    7.5922    1.5580 C   0  0  0  0  0  0  0  0  0  0  0  0
   92.6923    9.0122    1.8612 N   0  0  0  0  0  0  0  0  0  0  0  0
   93.2122    9.7502    1.0640 O   0  0  0  0  0  0  0  0  0  0  0  0
   92.1781    9.3649    2.8916 O   0  0  0  0  0  0  0  0  0  0  0  0
   93.2623    7.1434    0.3732 C   0  0  0  0  0  0  0  0  0  0  0  0
   93.2593    5.7893    0.0926 C   0  0  0  0  0  0  0  0  0  0  0  0
   91.4529    2.7906    0.5452 C   0  0  0  0  0  0  0  0  0  0  0  0
   90.1772    3.4455    0.6140 C   0  0  0  0  0  0  0  0  0  0  0  0
   89.2303    2.4927    0.4218 C   0  0  0  0  0  0  0  0  0  0  0  0
   91.2637    1.4567    0.2997 N   0  0  0  0  0  0  0  0  0  0  0  0
   89.9195    1.2527    0.2268 C   0  0  0  0  0  0  0  0  0  0  0  0
   89.2816    0.0194    0.0056 C   0  0  0  0  0  0  0  0  0  0  0  0
   89.9404   -1.2018   -0.2220 C   0  0  0  0  0  0  0  0  0  0  0  0
   89.2730   -2.4563   -0.3993 C   0  0  0  0  0  0  0  0  0  0  0  0
   90.2356   -3.3910   -0.6023 C   0  0  0  0  0  0  0  0  0  0  0  0
   91.4987   -2.7101   -0.5598 C   0  0  0  0  0  0  0  0  0  0  0  0
   91.2869   -1.3791   -0.3168 N   0  0  0  0  0  0  0  0  0  0  0  0
   92.7441   -3.3228   -0.7168 C   0  0  0  0  0  0  0  0  0  0  0  0
   92.7618   -4.7750   -1.0130 C   0  0  0  0  0  0  0  0  0  0  0  0
   93.3802   -5.6664   -0.1307 C   0  0  0  0  0  0  0  0  0  0  0  0
   93.4070   -7.0217   -0.4036 C   0  0  0  0  0  0  0  0  0  0  0  0
   92.8142   -7.4904   -1.5727 C   0  0  0  0  0  0  0  0  0  0  0  0
   92.8459   -8.9117   -1.8681 N   0  0  0  0  0  0  0  0  0  0  0  0
   93.3979   -9.6334   -1.0776 O   0  0  0  0  0  0  0  0  0  0  0  0
   92.3178   -9.2819   -2.8852 O   0  0  0  0  0  0  0  0  0  0  0  0
   92.1935   -6.6201   -2.4644 C   0  0  0  0  0  0  0  0  0  0  0  0
   92.1677   -5.2671   -2.1791 C   0  0  0  0  0  0  0  0  0  0  0  0
   93.9784   -2.6751   -0.6180 C   0  0  0  0  0  0  0  0  0  0  0  0
   95.2578   -3.2919   -0.8446 C   0  0  0  0  0  0  0  0  0  0  0  0
   96.1995   -2.3342   -0.6613 C   0  0  0  0  0  0  0  0  0  0  0  0
   95.5045   -1.1224   -0.3331 C   0  0  0  0  0  0  0  0  0  0  0  0
   94.1584   -1.3560   -0.3189 N   0  0  0  0  0  0  0  0  0  0  0  0
   97.2041    0.1030   -0.0808 H   0  0  0  0  0  0  0  0  0  0  0  0
   97.2328    2.6292    0.5904 H   0  0  0  0  0  0  0  0  0  0  0  0
   95.3402    4.4852    1.0219 H   0  0  0  0  0  0  0  0  0  0  0  0
   91.6651    4.6482    2.8640 H   0  0  0  0  0  0  0  0  0  0  0  0
   91.6658    7.0778    3.3750 H   0  0  0  0  0  0  0  0  0  0  0  0
   93.7038    7.8561   -0.3130 H   0  0  0  0  0  0  0  0  0  0  0  0
   93.6952    5.4283   -0.8317 H   0  0  0  0  0  0  0  0  0  0  0  0
   90.0287    4.5012    0.7730 H   0  0  0  0  0  0  0  0  0  0  0  0
   88.1587    2.6106    0.4049 H   0  0  0  0  0  0  0  0  0  0  0  0
   88.2045   -2.5957   -0.3632 H   0  0  0  0  0  0  0  0  0  0  0  0
   90.1058   -4.4504   -0.7529 H   0  0  0  0  0  0  0  0  0  0  0  0
   93.8288   -5.2900    0.7813 H   0  0  0  0  0  0  0  0  0  0  0  0
   93.8797   -7.7203    0.2763 H   0  0  0  0  0  0  0  0  0  0  0  0
   91.7429   -7.0098   -3.3693 H   0  0  0  0  0  0  0  0  0  0  0  0
   91.6996   -4.5777   -2.8720 H   0  0  0  0  0  0  0  0  0  0  0  0
   95.4089   -4.3226   -1.1219 H   0  0  0  0  0  0  0  0  0  0  0  0
   97.2708   -2.4237   -0.7471 H   0  0  0  0  0  0  0  0  0  0  0  0
   53.1965    0.0499   -0.0010 C   0  0  0  0  0  0  0  0  0  0  0  0
   51.9682    0.0464   -0.0018 C   0  0  0  0  0  0  0  0  0  0  0  0
   50.6232    0.0396   -0.0053 C   0  0  0  0  0  0  0  0  0  0  0  0
   49.3994    0.0345   -0.0112 C   0  0  0  0  0  0  0  0  0  0  0  0
   54.5414    0.0522   -0.0017 C   0  0  0  0  0  0  0  0  0  0  0  0
   55.7654    0.0533   -0.0047 C   0  0  0  0  0  0  0  0  0  0  0  0
   69.2518    0.0249   -0.0378 C   0  0  0  0  0  0  0  0  0  0  0  0
   68.0232    0.0284   -0.0414 C   0  0  0  0  0  0  0  0  0  0  0  0
   66.6786    0.0316   -0.0436 C   0  0  0  0  0  0  0  0  0  0  0  0
   65.4544    0.0345   -0.0430 C   0  0  0  0  0  0  0  0  0  0  0  0
   70.5964    0.0201   -0.0346 C   0  0  0  0  0  0  0  0  0  0  0  0
   71.8205    0.0161   -0.0300 C   0  0  0  0  0  0  0  0  0  0  0  0
   85.3065   -0.0080    0.0154 C   0  0  0  0  0  0  0  0  0  0  0  0
   84.0782   -0.0132    0.0130 C   0  0  0  0  0  0  0  0  0  0  0  0
   82.7333   -0.0152    0.0097 C   0  0  0  0  0  0  0  0  0  0  0  0
   81.5094   -0.0146    0.0054 C   0  0  0  0  0  0  0  0  0  0  0  0
   86.6515   -0.0020    0.0147 C   0  0  0  0  0  0  0  0  0  0  0  0
   87.8752    0.0066    0.0118 C   0  0  0  0  0  0  0  0  0  0  0  0
   60.6099    0.0443   -0.0281 Cu  0  0  0  0  0  0  0  0  0  0  0  0
   57.1711    0.0513   -0.0099 C   0  0  0  0  0  0  0  0  0  0  0  0
   57.8185   -1.1955    0.0616 C   0  0  0  0  0  0  0  0  0  0  0  0
   57.1396   -2.4499    0.1892 C   0  0  0  0  0  0  0  0  0  0  0  0
   58.0940   -3.4143    0.2168 C   0  0  0  0  0  0  0  0  0  0  0  0
   59.3628   -2.7535    0.0965 C   0  0  0  0  0  0  0  0  0  0  0  0
   59.1626   -1.4019    0.0132 N   0  0  0  0  0  0  0  0  0  0  0  0
   60.6036   -3.3955    0.0915 C   0  0  0  0  0  0  0  0  0  0  0  0
   60.5996   -4.8772    0.1410 C   0  0  0  0  0  0  0  0  0  0  0  0
   61.1967   -5.5501    1.2113 C   0  0  0  0  0  0  0  0  0  0  0  0
   61.1911   -6.9321    1.2641 C   0  0  0  0  0  0  0  0  0  0  0  0
   60.5878   -7.6483    0.2342 C   0  0  0  0  0  0  0  0  0  0  0  0
   60.5802   -9.0996    0.2838 N   0  0  0  0  0  0  0  0  0  0  0  0
   60.0445   -9.6857   -0.6217 O   0  0  0  0  0  0  0  0  0  0  0  0
   61.1107   -9.6281    1.2270 O   0  0  0  0  0  0  0  0  0  0  0  0
   59.9909   -6.9979   -0.8421 C   0  0  0  0  0  0  0  0  0  0  0  0
   59.9971   -5.6155   -0.8822 C   0  0  0  0  0  0  0  0  0  0  0  0
   61.8468   -2.7601    0.0438 C   0  0  0  0  0  0  0  0  0  0  0  0
   63.1133   -3.4323   -0.0278 C   0  0  0  0  0  0  0  0  0  0  0  0
   64.0712   -2.4716   -0.0647 C   0  0  0  0  0  0  0  0  0  0  0  0
   62.0519   -1.4066    0.0337 N   0  0  0  0  0  0  0  0  0  0  0  0
   63.3968   -1.2089   -0.0265 C   0  0  0  0  0  0  0  0  0  0  0  0
   64.0488    0.0375   -0.0413 C   0  0  0  0  0  0  0  0  0  0  0  0
   63.4017    1.2865   -0.0542 C   0  0  0  0  0  0  0  0  0  0  0  0
   64.0812    2.5467   -0.0263 C   0  0  0  0  0  0  0  0  0  0  0  0
   63.1268    3.5110   -0.0610 C   0  0  0  0  0  0  0  0  0  0  0  0
   61.8571    2.8435   -0.1189 C   0  0  0  0  0  0  0  0  0  0  0  0
   62.0571    1.4893   -0.1044 N   0  0  0  0  0  0  0  0  0  0  0  0
   60.6161    3.4838   -0.1565 C   0  0  0  0  0  0  0  0  0  0  0  0
   60.6181    4.9652   -0.2149 C   0  0  0  0  0  0  0  0  0  0  0  0
   61.2043    5.6280   -1.2975 C   0  0  0  0  0  0  0  0  0  0  0  0
   61.2035    7.0095   -1.3603 C   0  0  0  0  0  0  0  0  0  0  0  0
   60.6162    7.7356   -0.3280 C   0  0  0  0  0  0  0  0  0  0  0  0
   60.6134    9.1865   -0.3882 N   0  0  0  0  0  0  0  0  0  0  0  0
   61.1340    9.7060   -1.3419 O   0  0  0  0  0  0  0  0  0  0  0  0
   60.0901    9.7812    0.5189 O   0  0  0  0  0  0  0  0  0  0  0  0
   60.0308    7.0953    0.7606 C   0  0  0  0  0  0  0  0  0  0  0  0
   60.0321    5.7133    0.8107 C   0  0  0  0  0  0  0  0  0  0  0  0
   59.3726    2.8471   -0.1444 C   0  0  0  0  0  0  0  0  0  0  0  0
   58.1051    3.5129   -0.2505 C   0  0  0  0  0  0  0  0  0  0  0  0
   57.1472    2.5523   -0.2096 C   0  0  0  0  0  0  0  0  0  0  0  0
   57.8225    1.2954   -0.0883 C   0  0  0  0  0  0  0  0  0  0  0  0
   59.1679    1.4964   -0.0559 N   0  0  0  0  0  0  0  0  0  0  0  0
   56.0701   -2.5673    0.2573 H   0  0  0  0  0  0  0  0  0  0  0  0
   57.9545   -4.4777    0.3247 H   0  0  0  0  0  0  0  0  0  0  0  0
   61.6524   -4.9806    2.0129 H   0  0  0  0  0  0  0  0  0  0  0  0
   61.6452   -7.4622    2.0926 H   0  0  0  0  0  0  0  0  0  0  0  0
   59.5317   -7.5786   -1.6330 H   0  0  0  0  0  0  0  0  0  0  0  0
   59.5457   -5.0972   -1.7201 H   0  0  0  0  0  0  0  0  0  0  0  0
   63.2490   -4.5011   -0.0612 H   0  0  0  0  0  0  0  0  0  0  0  0
   65.1405   -2.5973   -0.1220 H   0  0  0  0  0  0  0  0  0  0  0  0
   65.1514    2.6685    0.0218 H   0  0  0  0  0  0  0  0  0  0  0  0
   63.2668    4.5794   -0.0344 H   0  0  0  0  0  0  0  0  0  0  0  0
   61.6476    5.0508   -2.1006 H   0  0  0  0  0  0  0  0  0  0  0  0
   61.6491    7.5318   -2.1983 H   0  0  0  0  0  0  0  0  0  0  0  0
   59.5843    7.6835    1.5532 H   0  0  0  0  0  0  0  0  0  0  0  0
   59.5895    5.2029    1.6582 H   0  0  0  0  0  0  0  0  0  0  0  0
   57.9685    4.5766   -0.3582 H   0  0  0  0  0  0  0  0  0  0  0  0
   56.0774    2.6739   -0.2647 H   0  0  0  0  0  0  0  0  0  0  0  0
   76.6648    0.0003   -0.0157 Cu  0  0  0  0  0  0  0  0  0  0  0  0
   73.2261    0.0117   -0.0259 C   0  0  0  0  0  0  0  0  0  0  0  0
   73.8715   -1.2357    0.0540 C   0  0  0  0  0  0  0  0  0  0  0  0
   73.1902   -2.4891    0.1788 C   0  0  0  0  0  0  0  0  0  0  0  0
   74.1431   -3.4550    0.2124 C   0  0  0  0  0  0  0  0  0  0  0  0
   75.4134   -2.7959    0.0987 C   0  0  0  0  0  0  0  0  0  0  0  0
   75.2155   -1.4440    0.0137 N   0  0  0  0  0  0  0  0  0  0  0  0
   76.6534   -3.4396    0.0989 C   0  0  0  0  0  0  0  0  0  0  0  0
   76.6493   -4.9213    0.1481 C   0  0  0  0  0  0  0  0  0  0  0  0
   77.2451   -5.5933    1.2197 C   0  0  0  0  0  0  0  0  0  0  0  0
   77.2446   -6.9753    1.2710 C   0  0  0  0  0  0  0  0  0  0  0  0
   76.6475   -7.6925    0.2381 C   0  0  0  0  0  0  0  0  0  0  0  0
   76.6487   -9.1440    0.2842 N   0  0  0  0  0  0  0  0  0  0  0  0
   76.1164   -9.7311   -0.6227 O   0  0  0  0  0  0  0  0  0  0  0  0
   77.1799   -9.6714    1.2276 O   0  0  0  0  0  0  0  0  0  0  0  0
   76.0503   -7.0430   -0.8385 C   0  0  0  0  0  0  0  0  0  0  0  0
   76.0515   -5.6605   -0.8771 C   0  0  0  0  0  0  0  0  0  0  0  0
   77.8977   -2.8057    0.0569 C   0  0  0  0  0  0  0  0  0  0  0  0
   79.1636   -3.4793   -0.0123 C   0  0  0  0  0  0  0  0  0  0  0  0
   80.1230   -2.5198   -0.0411 C   0  0  0  0  0  0  0  0  0  0  0  0
   78.1047   -1.4526    0.0528 N   0  0  0  0  0  0  0  0  0  0  0  0
   79.4502   -1.2565    0.0003 C   0  0  0  0  0  0  0  0  0  0  0  0
   80.1037   -0.0109   -0.0007 C   0  0  0  0  0  0  0  0  0  0  0  0
   79.4582    1.2388   -0.0091 C   0  0  0  0  0  0  0  0  0  0  0  0
   80.1388    2.4980    0.0343 C   0  0  0  0  0  0  0  0  0  0  0  0
   79.1860    3.4635   -0.0069 C   0  0  0  0  0  0  0  0  0  0  0  0
   77.9164    2.7978   -0.0847 C   0  0  0  0  0  0  0  0  0  0  0  0
   78.1145    1.4435   -0.0740 N   0  0  0  0  0  0  0  0  0  0  0  0
   76.6767    3.4400   -0.1385 C   0  0  0  0  0  0  0  0  0  0  0  0
   76.6839    4.9213   -0.1962 C   0  0  0  0  0  0  0  0  0  0  0  0
   77.2912    5.5818   -1.2686 C   0  0  0  0  0  0  0  0  0  0  0  0
   77.3013    6.9633   -1.3291 C   0  0  0  0  0  0  0  0  0  0  0  0
   76.7034    7.6919   -0.3046 C   0  0  0  0  0  0  0  0  0  0  0  0
   76.7147    9.1429   -0.3609 N   0  0  0  0  0  0  0  0  0  0  0  0
   77.2570    9.6601   -1.3037 O   0  0  0  0  0  0  0  0  0  0  0  0
   76.1830    9.7400    0.5397 O   0  0  0  0  0  0  0  0  0  0  0  0
   76.0954    7.0539    0.7729 C   0  0  0  0  0  0  0  0  0  0  0  0
   76.0859    5.6718    0.8207 C   0  0  0  0  0  0  0  0  0  0  0  0
   75.4325    2.8048   -0.1433 C   0  0  0  0  0  0  0  0  0  0  0  0
   74.1672    3.4720   -0.2650 C   0  0  0  0  0  0  0  0  0  0  0  0
   73.2077    2.5126   -0.2337 C   0  0  0  0  0  0  0  0  0  0  0  0
   73.8800    1.2549   -0.1030 C   0  0  0  0  0  0  0  0  0  0  0  0
   75.2251    1.4544   -0.0562 N   0  0  0  0  0  0  0  0  0  0  0  0
   72.1201   -2.6050    0.2408 H   0  0  0  0  0  0  0  0  0  0  0  0
   74.0016   -4.5181    0.3201 H   0  0  0  0  0  0  0  0  0  0  0  0
   77.6968   -5.0230    2.0231 H   0  0  0  0  0  0  0  0  0  0  0  0
   77.6987   -7.5047    2.1000 H   0  0  0  0  0  0  0  0  0  0  0  0
   75.5957   -7.6245   -1.6315 H   0  0  0  0  0  0  0  0  0  0  0  0
   75.6007   -5.1430   -1.7158 H   0  0  0  0  0  0  0  0  0  0  0  0
   79.2981   -4.5481   -0.0499 H   0  0  0  0  0  0  0  0  0  0  0  0
   81.1924   -2.6467   -0.0942 H   0  0  0  0  0  0  0  0  0  0  0  0
   81.2084    2.6182    0.0965 H   0  0  0  0  0  0  0  0  0  0  0  0
   79.3270    4.5316    0.0278 H   0  0  0  0  0  0  0  0  0  0  0  0
   77.7433    5.0028   -2.0654 H   0  0  0  0  0  0  0  0  0  0  0  0
   77.7642    7.4838   -2.1588 H   0  0  0  0  0  0  0  0  0  0  0  0
   75.6406    7.6441    1.5594 H   0  0  0  0  0  0  0  0  0  0  0  0
   75.6265    5.1633    1.6602 H   0  0  0  0  0  0  0  0  0  0  0  0
   74.0332    4.5358   -0.3755 H   0  0  0  0  0  0  0  0  0  0  0  0
   72.1387    2.6354   -0.3010 H   0  0  0  0  0  0  0  0  0  0  0  0
  2  3  4  0  0  0  0
  3  4  1  0  0  0  0
  4  5  2  0  0  0  0
  5  6  4  0  0  0  0
  1  7  1  0  0  0  0
  3  7  4  0  0  0  0
  6  7  4  0  0  0  0
  6  8  4  0  0  0  0
  8  9  1  0  0  0  0
  9 10  4  0  0  0  0
 10 11  4  0  0  0  0
 11 12  4  0  0  0  0
 12 13  1  0  0  0  0
 13 14  2  0  0  0  0
 13 15  2  0  0  0  0
 14 15  1  0  0  0  0
 12 16  4  0  0  0  0
  9 17  4  0  0  0  0
 16 17  4  0  0  0  0
  8 18  4  0  0  0  0
 18 19  4  0  0  0  0
 19 20  2  0  0  0  0
  1 21  1  0  0  0  0
 18 21  4  0  0  0  0
 20 22  4  0  0  0  0
 21 22  4  0  0  0  0
 22 23  4  0  0  0  0
 23 24  4  0  0  0  0
 24 25  4  0  0  0  0
 25 26  2  0  0  0  0
 26 27  4  0  0  0  0
  1 28  1  0  0  0  0
 24 28  4  0  0  0  0
 27 28  4  0  0  0  0
 27 29  4  0  0  0  0
 29 30  1  0  0  0  0
 30 31  4  0  0  0  0
 31 32  4  0  0  0  0
 32 33  4  0  0  0  0
 33 34  1  0  0  0  0
 34 35  2  0  0  0  0
 34 36  2  0  0  0  0
 35 36  1  0  0  0  0
 33 37  4  0  0  0  0
 30 38  4  0  0  0  0
 37 38  4  0  0  0  0
 29 39  4  0  0  0  0
 39 40  4  0  0  0  0
 40 41  2  0  0  0  0
  2 42  4  0  0  0  0
 41 42  1  0  0  0  0
  1 43  1  0  0  0  0
 39 43  4  0  0  0  0
 42 43  4  0  0  0  0
  2 44  1  0  0  0  0
  4 45  1  0  0  0  0
  5 46  1  0  0  0  0
 10 47  1  0  0  0  0
 11 48  1  0  0  0  0
 16 49  1  0  0  0  0
 17 50  1  0  0  0  0
 19 51  1  0  0  0  0
 20 52  1  0  0  0  0
 25 53  1  0  0  0  0
 26 54  1  0  0  0  0
 31 55  1  0  0  0  0
 32 56  1  0  0  0  0
 37 57  1  0  0  0  0
 38 58  1  0  0  0  0
 40 59  1  0  0  0  0
 41 60  1  0  0  0  0
 62 63  4  0  0  0  0
 63 64  1  0  0  0  0
 64 65  2  0  0  0  0
 65 66  4  0  0  0  0
 61 67  1  0  0  0  0
 63 67  4  0  0  0  0
 66 67  4  0  0  0  0
 66 68  4  0  0  0  0
 68 69  1  0  0  0  0
 69 70  4  0  0  0  0
 70 71  4  0  0  0  0
 71 72  4  0  0  0  0
 72 73  1  0  0  0  0
 73 74  2  0  0  0  0
 73 75  2  0  0  0  0
 74 75  1  0  0  0  0
 72 76  4  0  0  0  0
 69 77  4  0  0  0  0
 76 77  4  0  0  0  0
 68 78  4  0  0  0  0
 78 79  4  0  0  0  0
 79 80  2  0  0  0  0
 61 81  1  0  0  0  0
 78 81  4  0  0  0  0
 80 82  4  0  0  0  0
 81 82  4  0  0  0  0
 82 83  4  0  0  0  0
 83 84  4  0  0  0  0
 84 85  4  0  0  0  0
 85 86  2  0  0  0  0
 86 87  4  0  0  0  0
 61 88  1  0  0  0  0
 84 88  4  0  0  0  0
 87 88  4  0  0  0  0
 87 89  4  0  0  0  0
 89 90  1  0  0  0  0
 90 91  4  0  0  0  0
 91 92  4  0  0  0  0
 92 93  4  0  0  0  0
 93 94  1  0  0  0  0
 94 95  2  0  0  0  0
 94 96  2  0  0  0  0
 95 96  1  0  0  0  0
 93 97  4  0  0  0  0
 90 98  4  0  0  0  0
 97 98  4  0  0  0  0
 89 99  4  0  0  0  0
 99100  4  0  0  0  0
100101  2  0  0  0  0
 62102  4  0  0  0  0
101102  1  0  0  0  0
 61103  1  0  0  0  0
 99103  4  0  0  0  0
102103  4  0  0  0  0
 62104  1  0  0  0  0
 64105  1  0  0  0  0
 65106  1  0  0  0  0
 70107  1  0  0  0  0
 71108  1  0  0  0  0
 76109  1  0  0  0  0
 77110  1  0  0  0  0
 79111  1  0  0  0  0
 80112  1  0  0  0  0
 85113  1  0  0  0  0
 86114  1  0  0  0  0
 91115  1  0  0  0  0
 92116  1  0  0  0  0
 97117  1  0  0  0  0
 98118  1  0  0  0  0
100119  1  0  0  0  0
101120  1  0  0  0  0
121122  3  0  0  0  0
122123  4  0  0  0  0
 23124  4  0  0  0  0
123124  3  0  0  0  0
121125  4  0  0  0  0
125126  3  0  0  0  0
127128  3  0  0  0  0
128129  4  0  0  0  0
129130  3  0  0  0  0
127131  4  0  0  0  0
131132  3  0  0  0  0
133134  3  0  0  0  0
134135  4  0  0  0  0
135136  3  0  0  0  0
133137  4  0  0  0  0
 83138  4  0  0  0  0
137138  3  0  0  0  0
126140  4  0  0  0  0
140141  4  0  0  0  0
141142  4  0  0  0  0
142143  2  0  0  0  0
143144  4  0  0  0  0
139145  1  0  0  0  0
141145  4  0  0  0  0
144145  4  0  0  0  0
144146  4  0  0  0  0
146147  1  0  0  0  0
147148  4  0  0  0  0
148149  4  0  0  0  0
149150  4  0  0  0  0
150151  1  0  0  0  0
151152  2  0  0  0  0
151153  2  0  0  0  0
152153  1  0  0  0  0
150154  4  0  0  0  0
147155  4  0  0  0  0
154155  4  0  0  0  0
146156  4  0  0  0  0
156157  4  0  0  0  0
157158  2  0  0  0  0
139159  1  0  0  0  0
156159  4  0  0  0  0
158160  4  0  0  0  0
159160  4  0  0  0  0
130161  4  0  0  0  0
160161  4  0  0  0  0
161162  4  0  0  0  0
162163  4  0  0  0  0
163164  2  0  0  0  0
164165  4  0  0  0  0
139166  1  0  0  0  0
162166  4  0  0  0  0
165166  4  0  0  0  0
165167  4  0  0  0  0
167168  1  0  0  0  0
168169  4  0  0  0  0
169170  4  0  0  0  0
170171  4  0  0  0  0
171172  1  0  0  0  0
172173  2  0  0  0  0
172174  2  0  0  0  0
173174  1  0  0  0  0
171175  4  0  0  0  0
168176  4  0  0  0  0
175176  4  0  0  0  0
167177  4  0  0  0  0
177178  4  0  0  0  0
178179  2  0  0  0  0
140180  4  0  0  0  0
179180  4  0  0  0  0
139181  1  0  0  0  0
177181  4  0  0  0  0
180181  4  0  0  0  0
142182  1  0  0  0  0
143183  1  0  0  0  0
148184  1  0  0  0  0
149185  1  0  0  0  0
154186  1  0  0  0  0
155187  1  0  0  0  0
157188  1  0  0  0  0
158189  1  0  0  0  0
163190  1  0  0  0  0
164191  1  0  0  0  0
169192  1  0  0  0  0
170193  1  0  0  0  0
175194  1  0  0  0  0
176195  1  0  0  0  0
178196  1  0  0  0  0
179197  1  0  0  0  0
132199  4  0  0  0  0
199200  4  0  0  0  0
200201  4  0  0  0  0
201202  2  0  0  0  0
202203  4  0  0  0  0
198204  1  0  0  0  0
200204  4  0  0  0  0
203204  4  0  0  0  0
203205  4  0  0  0  0
205206  1  0  0  0  0
206207  4  0  0  0  0
207208  4  0  0  0  0
208209  4  0  0  0  0
209210  1  0  0  0  0
210211  2  0  0  0  0
210212  2  0  0  0  0
211212  1  0  0  0  0
209213  4  0  0  0  0
206214  4  0  0  0  0
213214  4  0  0  0  0
205215  4  0  0  0  0
215216  4  0  0  0  0
216217  2  0  0  0  0
198218  1  0  0  0  0
215218  4  0  0  0  0
217219  4  0  0  0  0
218219  4  0  0  0  0
136220  4  0  0  0  0
219220  4  0  0  0  0
220221  4  0  0  0  0
221222  4  0  0  0  0
222223  2  0  0  0  0
223224  4  0  0  0  0
198225  1  0  0  0  0
221225  4  0  0  0  0
224225  4  0  0  0  0
224226  4  0  0  0  0
226227  1  0  0  0  0
227228  4  0  0  0  0
228229  4  0  0  0  0
229230  4  0  0  0  0
230231  1  0  0  0  0
231232  2  0  0  0  0
231233  2  0  0  0  0
232233  1  0  0  0  0
230234  4  0  0  0  0
227235  4  0  0  0  0
234235  4  0  0  0  0
226236  4  0  0  0  0
236237  4  0  0  0  0
237238  2  0  0  0  0
199239  4  0  0  0  0
238239  4  0  0  0  0
198240  1  0  0  0  0
236240  4  0  0  0  0
239240  4  0  0  0  0
201241  1  0  0  0  0
202242  1  0  0  0  0
207243  1  0  0  0  0
208244  1  0  0  0  0
213245  1  0  0  0  0
214246  1  0  0  0  0
216247  1  0  0  0  0
217248  1  0  0  0  0
222249  1  0  0  0  0
223250  1  0  0  0  0
228251  1  0  0  0  0
229252  1  0  0  0  0
234253  1  0  0  0  0
235254  1  0  0  0  0
237255  1  0  0  0  0
238256  1  0  0  0  0
M  END
