128

Cu 16.059585 -0.028910 0.001168
C 12.726445 0.122102 0.107577
C 13.393257 1.279048 0.086178
C 12.744886 2.584666 0.084973
C 13.688527 3.506736 0.077012
C 14.993673 2.831687 0.074944
N 14.813691 1.415461 0.079980
C 16.187623 3.456578 0.104861
C 16.225148 4.935281 0.112376
C 16.015808 5.650556 -1.074598
C 16.037462 7.048895 -1.071660
O 15.823186 7.730073 -2.270048
C 16.270527 7.744554 0.128491
O 16.286155 9.140087 0.124426
C 16.484302 7.028540 1.320583
O 16.717147 7.711239 2.513224
C 16.461825 5.627310 1.307190
C 17.485831 2.732473 0.143217
C 18.785104 3.401999 0.274641
C 19.719430 2.474829 0.259986
N 17.620454 1.444698 0.042631
C 19.026325 1.200927 0.108458
C 19.621534 0.000219 0.000062
C 18.868575 -1.265312 -0.180089
C 19.433864 -2.427254 -0.485217
C 18.386368 -3.426313 -0.515414
C 17.244679 -2.812146 -0.229358
N 17.458430 -1.415429 -0.003069
C 15.935568 -3.505860 -0.110889
C 15.916752 -4.984642 -0.129495
C 16.063382 -5.702644 1.063913
C 16.042098 -7.101106 1.055056
O 16.183827 -7.786390 2.261787
C 15.878771 -7.793072 -0.158929
O 15.861941 -9.188506 -0.159945
C 15.736867 -7.073291 -1.359474
O 15.579427 -7.752695 -2.566683
C 15.755040 -5.671979 -1.339459
C 14.772894 -2.840685 0.011205
C 13.448964 -3.448856 0.129921
C 12.589954 -2.450213 0.181656
C 13.356064 -1.207582 0.101662
N 14.630797 -1.422334 0.001218
H 11.643561 0.154886 0.132197
H 11.680259 2.780426 0.094087
H 13.504846 4.573386 0.083570
H 15.832077 5.120234 -2.001289
H 15.828159 8.741512 -2.323023
H 16.436529 9.680342 0.967432
H 16.873460 7.218913 3.385145
H 16.624551 5.076711 2.225849
H 18.968671 4.464559 0.364554
H 20.783218 2.658005 0.334741
H 20.483516 -2.612162 -0.667190
H 18.521262 -4.481079 -0.718358
H 16.190557 -5.174889 2.001362
H 16.165510 -8.797457 2.312155
H 15.748048 -9.726624 -1.010372
H 15.479589 -7.258395 -3.446100
H 15.644700 -5.118496 -2.264504
H 13.197072 -4.501015 0.164414
H 11.514955 -2.548016 0.265101
Cu 29.363015 0.029035 0.004462
C 32.696155 -0.133065 0.093069
C 32.029342 -1.280129 -0.059327
C 32.677714 -2.577197 -0.208510
C 31.734073 -3.492423 -0.320932
C 30.428926 -2.821489 -0.246473
N 30.608909 -1.414961 -0.080947
C 29.234976 -3.445744 -0.287577
C 29.197452 -4.915770 -0.447715
C 29.406792 -5.491897 -1.708113
C 29.385137 -6.881558 -1.863690
O 29.599414 -7.422514 -3.131563
C 29.152073 -7.708765 -0.750122
O 29.136445 -9.094844 -0.912339
C 28.938298 -7.132484 0.515444
O 28.705452 -7.945964 1.623019
C 28.960774 -5.738766 0.660961
C 27.936769 -2.730653 -0.167395
C 26.637495 -3.410761 -0.112705
C 25.703170 -2.487905 -0.022175
N 27.802145 -1.439777 -0.121368
C 26.396275 -1.205038 -0.028335
C 25.801066 0.000219 0.000062
C 26.554025 1.278014 -0.035486
C 25.988736 2.467052 -0.206946
C 27.036232 3.463097 -0.123710
C 28.177921 2.820464 0.090890
N 27.964170 1.407099 0.157409
C 29.487032 3.496280 0.287225
C 29.505847 4.967640 0.436352
C 29.359218 5.545748 1.703452
C 29.380502 6.936201 1.853161
O 29.238773 7.480292 3.129789
C 29.543829 7.761308 0.725430
O 29.560659 9.147865 0.882587
C 29.685733 7.182242 -0.548961
O 29.843173 7.994099 -1.671383
C 29.667560 5.787692 -0.687909
C 30.649705 2.821552 0.333137
C 31.973635 3.412348 0.520021
C 32.832646 2.414277 0.458231
C 32.066536 1.188720 0.237906
N 30.791803 1.413474 0.162451
H 33.779038 -0.168429 0.113815
H 33.742341 -2.772728 -0.221643
H 31.917754 -4.552942 -0.435316
H 29.590523 -4.859956 -2.568723
H 29.594440 -8.421431 -3.298839
H 28.986071 -9.727169 -0.136001
H 28.549139 -7.555639 2.545124
H 28.798048 -5.295841 1.636108
H 26.453929 -4.476664 -0.143808
H 24.639382 -2.678374 0.031336
H 24.939083 2.671395 -0.366788
H 26.901338 4.534068 -0.205793
H 29.232042 4.915138 2.575040
H 29.257089 8.479134 3.294432
H 29.674552 9.778906 0.098634
H 29.943011 7.602663 -2.601160
H 29.777900 5.342626 -1.669726
H 32.225527 4.453817 0.673550
H 33.907645 2.501991 0.552224
C 21.975808 0.012390 0.002429
C 20.723538 -0.006791 -0.001920
C 23.289477 0.011624 0.004361
C 24.792610 -0.006791 -0.001920
