 xtb: 6.5.1 (b24c23e)
          07302209303D

128147  0     0  0            999 V2000
   15.9835    0.0588   -0.0082 Cu  0  0  0  0  0  0  0  0  0  0  0  0
   12.5815    0.0954   -0.1744 C   0  0  0  0  0  0  0  0  0  0  0  0
   13.2159    1.3270   -0.1130 C   0  0  0  0  0  0  0  0  0  0  0  0
   12.5402    2.5924   -0.0764 C   0  0  0  0  0  0  0  0  0  0  0  0
   13.4978    3.5495   -0.0013 C   0  0  0  0  0  0  0  0  0  0  0  0
   14.7690    2.8774   -0.0008 C   0  0  0  0  0  0  0  0  0  0  0  0
   14.5658    1.5285   -0.0611 N   0  0  0  0  0  0  0  0  0  0  0  0
   16.0125    3.5087    0.0771 C   0  0  0  0  0  0  0  0  0  0  0  0
   16.0272    4.9937    0.1196 C   0  0  0  0  0  0  0  0  0  0  0  0
   15.5329    5.7313   -0.9560 C   0  0  0  0  0  0  0  0  0  0  0  0
   15.5528    7.1207   -0.9162 C   0  0  0  0  0  0  0  0  0  0  0  0
   15.0830    7.8478   -1.9595 O   0  0  0  0  0  0  0  0  0  0  0  0
   16.0609    7.7771    0.2059 C   0  0  0  0  0  0  0  0  0  0  0  0
   16.0647    9.1476    0.2184 O   0  0  0  0  0  0  0  0  0  0  0  0
   16.5503    7.0403    1.2812 C   0  0  0  0  0  0  0  0  0  0  0  0
   17.0288    7.7539    2.3489 O   0  0  0  0  0  0  0  0  0  0  0  0
   16.5392    5.6515    1.2411 C   0  0  0  0  0  0  0  0  0  0  0  0
   17.2440    2.8517    0.1180 C   0  0  0  0  0  0  0  0  0  0  0  0
   18.5227    3.5038    0.1413 C   0  0  0  0  0  0  0  0  0  0  0  0
   19.4672    2.5292    0.1621 C   0  0  0  0  0  0  0  0  0  0  0  0
   17.4311    1.4946    0.1127 N   0  0  0  0  0  0  0  0  0  0  0  0
   18.7740    1.2765    0.1440 C   0  0  0  0  0  0  0  0  0  0  0  0
   19.4087    0.0219    0.1425 C   0  0  0  0  0  0  0  0  0  0  0  0
   18.7508   -1.2194    0.0944 C   0  0  0  0  0  0  0  0  0  0  0  0
   19.4193   -2.4858    0.0693 C   0  0  0  0  0  0  0  0  0  0  0  0
   18.4562   -3.4399    0.0062 C   0  0  0  0  0  0  0  0  0  0  0  0
   17.1908   -2.7618   -0.0014 C   0  0  0  0  0  0  0  0  0  0  0  0
   17.4041   -1.4094    0.0474 N   0  0  0  0  0  0  0  0  0  0  0  0
   15.9474   -3.3911   -0.0819 C   0  0  0  0  0  0  0  0  0  0  0  0
   15.9318   -4.8767   -0.1130 C   0  0  0  0  0  0  0  0  0  0  0  0
   16.4030   -5.6051    0.9791 C   0  0  0  0  0  0  0  0  0  0  0  0
   16.3838   -6.9947    0.9507 C   0  0  0  0  0  0  0  0  0  0  0  0
   16.8312   -7.7130    2.0098 O   0  0  0  0  0  0  0  0  0  0  0  0
   15.9005   -7.6604   -0.1768 C   0  0  0  0  0  0  0  0  0  0  0  0
   15.8977   -9.0311   -0.1785 O   0  0  0  0  0  0  0  0  0  0  0  0
   15.4344   -6.9327   -1.2686 C   0  0  0  0  0  0  0  0  0  0  0  0
   14.9799   -7.6554   -2.3408 O   0  0  0  0  0  0  0  0  0  0  0  0
   15.4436   -5.5436   -1.2395 C   0  0  0  0  0  0  0  0  0  0  0  0
   14.7168   -2.7325   -0.1375 C   0  0  0  0  0  0  0  0  0  0  0  0
   13.4335   -3.3796   -0.1779 C   0  0  0  0  0  0  0  0  0  0  0  0
   12.4940   -2.4018   -0.2080 C   0  0  0  0  0  0  0  0  0  0  0  0
   13.1933   -1.1493   -0.1776 C   0  0  0  0  0  0  0  0  0  0  0  0
   14.5389   -1.3787   -0.1322 N   0  0  0  0  0  0  0  0  0  0  0  0
   11.4970    0.1061   -0.2120 H   0  0  0  0  0  0  0  0  0  0  0  0
   11.4690    2.7175   -0.0987 H   0  0  0  0  0  0  0  0  0  0  0  0
   13.3624    4.6174    0.0594 H   0  0  0  0  0  0  0  0  0  0  0  0
   15.1492    5.2325   -1.8366 H   0  0  0  0  0  0  0  0  0  0  0  0
   15.1845    8.7896   -1.7443 H   0  0  0  0  0  0  0  0  0  0  0  0
   16.4474    9.4370    1.0619 H   0  0  0  0  0  0  0  0  0  0  0  0
   17.3494    7.1616    3.0416 H   0  0  0  0  0  0  0  0  0  0  0  0
   16.9108    5.0842    2.0863 H   0  0  0  0  0  0  0  0  0  0  0  0
   18.6756    4.5709    0.1277 H   0  0  0  0  0  0  0  0  0  0  0  0
   20.5397    2.6394    0.1809 H   0  0  0  0  0  0  0  0  0  0  0  0
   20.4892   -2.6178    0.0918 H   0  0  0  0  0  0  0  0  0  0  0  0
   18.5873   -4.5087   -0.0430 H   0  0  0  0  0  0  0  0  0  0  0  0
   16.7694   -5.0985    1.8626 H   0  0  0  0  0  0  0  0  0  0  0  0
   16.7356   -8.6566    1.7998 H   0  0  0  0  0  0  0  0  0  0  0  0
   15.5357   -9.3274   -1.0287 H   0  0  0  0  0  0  0  0  0  0  0  0
   14.6823   -7.0689   -3.0485 H   0  0  0  0  0  0  0  0  0  0  0  0
   15.0902   -4.9833   -2.0972 H   0  0  0  0  0  0  0  0  0  0  0  0
   13.2778   -4.4465   -0.1706 H   0  0  0  0  0  0  0  0  0  0  0  0
   11.4208   -2.5056   -0.2401 H   0  0  0  0  0  0  0  0  0  0  0  0
   29.4385   -0.0568   -0.0141 Cu  0  0  0  0  0  0  0  0  0  0  0  0
   32.8382   -0.0713   -0.2133 C   0  0  0  0  0  0  0  0  0  0  0  0
   32.2044   -1.3027   -0.2826 C   0  0  0  0  0  0  0  0  0  0  0  0
   32.8811   -2.5636   -0.3893 C   0  0  0  0  0  0  0  0  0  0  0  0
   31.9247   -3.5246   -0.4108 C   0  0  0  0  0  0  0  0  0  0  0  0
   30.6530   -2.8583   -0.3287 C   0  0  0  0  0  0  0  0  0  0  0  0
   30.8551   -1.5106   -0.2427 N   0  0  0  0  0  0  0  0  0  0  0  0
   29.4100   -3.4957   -0.3151 C   0  0  0  0  0  0  0  0  0  0  0  0
   29.3956   -4.9758   -0.4394 C   0  0  0  0  0  0  0  0  0  0  0  0
   29.8988   -5.5883   -1.5872 C   0  0  0  0  0  0  0  0  0  0  0  0
   29.8795   -6.9733   -1.7041 C   0  0  0  0  0  0  0  0  0  0  0  0
   30.3591   -7.5784   -2.8184 O   0  0  0  0  0  0  0  0  0  0  0  0
   29.3618   -7.7516   -0.6676 C   0  0  0  0  0  0  0  0  0  0  0  0
   29.3581   -9.1148   -0.8098 O   0  0  0  0  0  0  0  0  0  0  0  0
   28.8626   -7.1402    0.4795 C   0  0  0  0  0  0  0  0  0  0  0  0
   28.3742   -7.9691    1.4553 O   0  0  0  0  0  0  0  0  0  0  0  0
   28.8744   -5.7558    0.5965 C   0  0  0  0  0  0  0  0  0  0  0  0
   28.1786   -2.8476   -0.1969 C   0  0  0  0  0  0  0  0  0  0  0  0
   26.8996   -3.4979   -0.2463 C   0  0  0  0  0  0  0  0  0  0  0  0
   25.9554   -2.5317   -0.1152 C   0  0  0  0  0  0  0  0  0  0  0  0
   27.9918   -1.4985   -0.0484 N   0  0  0  0  0  0  0  0  0  0  0  0
   26.6489   -1.2851    0.0082 C   0  0  0  0  0  0  0  0  0  0  0  0
   26.0146   -0.0384    0.1503 C   0  0  0  0  0  0  0  0  0  0  0  0
   26.6726    1.2000    0.2470 C   0  0  0  0  0  0  0  0  0  0  0  0
   26.0038    2.4600    0.3735 C   0  0  0  0  0  0  0  0  0  0  0  0
   26.9663    3.4156    0.4189 C   0  0  0  0  0  0  0  0  0  0  0  0
   28.2319    2.7442    0.3262 C   0  0  0  0  0  0  0  0  0  0  0  0
   28.0191    1.3950    0.2176 N   0  0  0  0  0  0  0  0  0  0  0  0
   29.4748    3.3798    0.3099 C   0  0  0  0  0  0  0  0  0  0  0  0
   29.4901    4.8590    0.4486 C   0  0  0  0  0  0  0  0  0  0  0  0
   29.0159    5.4590    1.6150 C   0  0  0  0  0  0  0  0  0  0  0  0
   29.0333    6.8430    1.7438 C   0  0  0  0  0  0  0  0  0  0  0  0
   28.5816    7.4365    2.8759 O   0  0  0  0  0  0  0  0  0  0  0  0
   29.5193    7.6324    0.7004 C   0  0  0  0  0  0  0  0  0  0  0  0
   29.5208    8.9945    0.8542 O   0  0  0  0  0  0  0  0  0  0  0  0
   29.9891    7.0332   -0.4653 C   0  0  0  0  0  0  0  0  0  0  0  0
   30.4467    7.8727   -1.4473 O   0  0  0  0  0  0  0  0  0  0  0  0
   29.9802    5.6498   -0.5940 C   0  0  0  0  0  0  0  0  0  0  0  0
   30.7048    2.7326    0.1674 C   0  0  0  0  0  0  0  0  0  0  0  0
   31.9881    3.3806    0.1888 C   0  0  0  0  0  0  0  0  0  0  0  0
   32.9265    2.4135    0.0357 C   0  0  0  0  0  0  0  0  0  0  0  0
   32.2268    1.1654   -0.0700 C   0  0  0  0  0  0  0  0  0  0  0  0
   30.8819    1.3873    0.0154 N   0  0  0  0  0  0  0  0  0  0  0  0
   33.9222   -0.0767   -0.2628 H   0  0  0  0  0  0  0  0  0  0  0  0
   33.9521   -2.6842   -0.4332 H   0  0  0  0  0  0  0  0  0  0  0  0
   32.0617   -4.5925   -0.4662 H   0  0  0  0  0  0  0  0  0  0  0  0
   30.2888   -4.9940   -2.4033 H   0  0  0  0  0  0  0  0  0  0  0  0
   30.2566   -8.5385   -2.7115 H   0  0  0  0  0  0  0  0  0  0  0  0
   28.9673   -9.4972   -0.0080 H   0  0  0  0  0  0  0  0  0  0  0  0
   28.0449   -7.4584    2.2064 H   0  0  0  0  0  0  0  0  0  0  0  0
   28.4962   -5.2874    1.4976 H   0  0  0  0  0  0  0  0  0  0  0  0
   26.7460   -4.5564   -0.3807 H   0  0  0  0  0  0  0  0  0  0  0  0
   24.8829   -2.6432   -0.1083 H   0  0  0  0  0  0  0  0  0  0  0  0
   24.9339    2.5876    0.4161 H   0  0  0  0  0  0  0  0  0  0  0  0
   26.8343    4.4826    0.4959 H   0  0  0  0  0  0  0  0  0  0  0  0
   28.6485    4.8557    2.4351 H   0  0  0  0  0  0  0  0  0  0  0  0
   28.6762    8.3980    2.7740 H   0  0  0  0  0  0  0  0  0  0  0  0
   29.8876    9.3855    0.0453 H   0  0  0  0  0  0  0  0  0  0  0  0
   30.7480    7.3700   -2.2154 H   0  0  0  0  0  0  0  0  0  0  0  0
   30.3351    5.1908   -1.5093 H   0  0  0  0  0  0  0  0  0  0  0  0
   32.1450    4.4395    0.3181 H   0  0  0  0  0  0  0  0  0  0  0  0
   33.9994    2.5210    0.0039 H   0  0  0  0  0  0  0  0  0  0  0  0
   22.0365   -0.0097    0.1907 C   0  0  0  0  0  0  0  0  0  0  0  0
   20.8150    0.0087    0.1733 C   0  0  0  0  0  0  0  0  0  0  0  0
   23.3867   -0.0201    0.1913 C   0  0  0  0  0  0  0  0  0  0  0  0
   24.6083   -0.0282    0.1787 C   0  0  0  0  0  0  0  0  0  0  0  0
  2  3  4  0  0  0  0
  3  4  1  0  0  0  0
  4  5  2  0  0  0  0
  5  6  4  0  0  0  0
  1  7  1  0  0  0  0
  3  7  4  0  0  0  0
  6  7  4  0  0  0  0
  6  8  4  0  0  0  0
  8  9  1  0  0  0  0
  9 10  4  0  0  0  0
 10 11  4  0  0  0  0
 11 12  1  0  0  0  0
 11 13  4  0  0  0  0
 13 14  1  0  0  0  0
 13 15  4  0  0  0  0
 15 16  1  0  0  0  0
  9 17  4  0  0  0  0
 15 17  4  0  0  0  0
  8 18  4  0  0  0  0
 18 19  4  0  0  0  0
 19 20  2  0  0  0  0
  1 21  1  0  0  0  0
 18 21  4  0  0  0  0
 20 22  4  0  0  0  0
 21 22  4  0  0  0  0
 22 23  4  0  0  0  0
 23 24  4  0  0  0  0
 24 25  4  0  0  0  0
 25 26  2  0  0  0  0
 26 27  4  0  0  0  0
  1 28  1  0  0  0  0
 24 28  4  0  0  0  0
 27 28  4  0  0  0  0
 27 29  4  0  0  0  0
 29 30  1  0  0  0  0
 30 31  4  0  0  0  0
 31 32  4  0  0  0  0
 32 33  1  0  0  0  0
 32 34  4  0  0  0  0
 34 35  1  0  0  0  0
 34 36  4  0  0  0  0
 36 37  1  0  0  0  0
 30 38  4  0  0  0  0
 36 38  4  0  0  0  0
 29 39  4  0  0  0  0
 39 40  4  0  0  0  0
 40 41  2  0  0  0  0
  2 42  4  0  0  0  0
 41 42  1  0  0  0  0
  1 43  1  0  0  0  0
 39 43  4  0  0  0  0
 42 43  4  0  0  0  0
  2 44  1  0  0  0  0
  4 45  1  0  0  0  0
  5 46  1  0  0  0  0
 10 47  1  0  0  0  0
 12 48  1  0  0  0  0
 14 49  1  0  0  0  0
 16 50  1  0  0  0  0
 17 51  1  0  0  0  0
 19 52  1  0  0  0  0
 20 53  1  0  0  0  0
 25 54  1  0  0  0  0
 26 55  1  0  0  0  0
 31 56  1  0  0  0  0
 33 57  1  0  0  0  0
 35 58  1  0  0  0  0
 37 59  1  0  0  0  0
 38 60  1  0  0  0  0
 40 61  1  0  0  0  0
 41 62  1  0  0  0  0
 64 65  4  0  0  0  0
 65 66  1  0  0  0  0
 66 67  2  0  0  0  0
 67 68  4  0  0  0  0
 63 69  1  0  0  0  0
 65 69  4  0  0  0  0
 68 69  4  0  0  0  0
 68 70  4  0  0  0  0
 70 71  1  0  0  0  0
 71 72  4  0  0  0  0
 72 73  4  0  0  0  0
 73 74  1  0  0  0  0
 73 75  4  0  0  0  0
 75 76  1  0  0  0  0
 75 77  4  0  0  0  0
 77 78  1  0  0  0  0
 71 79  4  0  0  0  0
 77 79  4  0  0  0  0
 70 80  4  0  0  0  0
 80 81  4  0  0  0  0
 81 82  2  0  0  0  0
 63 83  1  0  0  0  0
 80 83  4  0  0  0  0
 82 84  4  0  0  0  0
 83 84  4  0  0  0  0
 84 85  4  0  0  0  0
 85 86  4  0  0  0  0
 86 87  4  0  0  0  0
 87 88  2  0  0  0  0
 88 89  4  0  0  0  0
 63 90  1  0  0  0  0
 86 90  4  0  0  0  0
 89 90  4  0  0  0  0
 89 91  4  0  0  0  0
 91 92  1  0  0  0  0
 92 93  4  0  0  0  0
 93 94  4  0  0  0  0
 94 95  1  0  0  0  0
 94 96  4  0  0  0  0
 96 97  1  0  0  0  0
 96 98  4  0  0  0  0
 98 99  1  0  0  0  0
 92100  4  0  0  0  0
 98100  4  0  0  0  0
 91101  4  0  0  0  0
101102  4  0  0  0  0
102103  2  0  0  0  0
 64104  4  0  0  0  0
103104  1  0  0  0  0
 63105  1  0  0  0  0
101105  4  0  0  0  0
104105  4  0  0  0  0
 64106  1  0  0  0  0
 66107  1  0  0  0  0
 67108  1  0  0  0  0
 72109  1  0  0  0  0
 74110  1  0  0  0  0
 76111  1  0  0  0  0
 78112  1  0  0  0  0
 79113  1  0  0  0  0
 81114  1  0  0  0  0
 82115  1  0  0  0  0
 87116  1  0  0  0  0
 88117  1  0  0  0  0
 93118  1  0  0  0  0
 95119  1  0  0  0  0
 97120  1  0  0  0  0
 99121  1  0  0  0  0
100122  1  0  0  0  0
102123  1  0  0  0  0
103124  1  0  0  0  0
 23126  4  0  0  0  0
125126  3  0  0  0  0
125127  4  0  0  0  0
 85128  4  0  0  0  0
127128  3  0  0  0  0
M  END
