 xtb: 6.5.1 (b24c23e)
          07302208473D

175204  0     0  0            999 V2000
   28.8320   -0.0129    0.0061 Cu  0  0  0  0  0  0  0  0  0  0  0  0
   25.4247   -0.0421   -0.0237 C   0  0  0  0  0  0  0  0  0  0  0  0
   26.0600   -1.2730   -0.0898 C   0  0  0  0  0  0  0  0  0  0  0  0
   25.3850   -2.5384   -0.1373 C   0  0  0  0  0  0  0  0  0  0  0  0
   26.3441   -3.4965   -0.1731 C   0  0  0  0  0  0  0  0  0  0  0  0
   27.6147   -2.8240   -0.1565 C   0  0  0  0  0  0  0  0  0  0  0  0
   27.4107   -1.4752   -0.0999 N   0  0  0  0  0  0  0  0  0  0  0  0
   28.8590   -3.4581   -0.1641 C   0  0  0  0  0  0  0  0  0  0  0  0
   30.0919   -2.8058   -0.1095 C   0  0  0  0  0  0  0  0  0  0  0  0
   31.3690   -3.4590   -0.1613 C   0  0  0  0  0  0  0  0  0  0  0  0
   32.3158   -2.4881   -0.1057 C   0  0  0  0  0  0  0  0  0  0  0  0
   30.2815   -1.4509   -0.0334 N   0  0  0  0  0  0  0  0  0  0  0  0
   31.6254   -1.2359   -0.0273 C   0  0  0  0  0  0  0  0  0  0  0  0
   32.2621    0.0167    0.0261 C   0  0  0  0  0  0  0  0  0  0  0  0
   31.6033    1.2579    0.0775 C   0  0  0  0  0  0  0  0  0  0  0  0
   32.2709    2.5244    0.1000 C   0  0  0  0  0  0  0  0  0  0  0  0
   31.3069    3.4790    0.1422 C   0  0  0  0  0  0  0  0  0  0  0  0
   30.0420    2.8005    0.1534 C   0  0  0  0  0  0  0  0  0  0  0  0
   28.7973    3.4321    0.1841 C   0  0  0  0  0  0  0  0  0  0  0  0
   28.7830    4.9148    0.2657 C   0  0  0  0  0  0  0  0  0  0  0  0
   28.2306    5.6753   -0.7656 C   0  0  0  0  0  0  0  0  0  0  0  0
   28.2196    7.0600   -0.6874 C   0  0  0  0  0  0  0  0  0  0  0  0
   28.7545    7.7010    0.4219 C   0  0  0  0  0  0  0  0  0  0  0  0
   29.3034    6.9511    1.4532 C   0  0  0  0  0  0  0  0  0  0  0  0
   29.3206    5.5665    1.3762 C   0  0  0  0  0  0  0  0  0  0  0  0
   27.5644    2.7772    0.1444 C   0  0  0  0  0  0  0  0  0  0  0  0
   26.2820    3.4231    0.2176 C   0  0  0  0  0  0  0  0  0  0  0  0
   25.3403    2.4493    0.1541 C   0  0  0  0  0  0  0  0  0  0  0  0
   26.0379    1.1995    0.0516 C   0  0  0  0  0  0  0  0  0  0  0  0
   27.3846    1.4267    0.0532 N   0  0  0  0  0  0  0  0  0  0  0  0
   30.2559    1.4480    0.1040 N   0  0  0  0  0  0  0  0  0  0  0  0
   28.8705   -4.9415   -0.2380 C   0  0  0  0  0  0  0  0  0  0  0  0
   28.3631   -5.5966   -1.3606 C   0  0  0  0  0  0  0  0  0  0  0  0
   28.3768   -6.9817   -1.4300 C   0  0  0  0  0  0  0  0  0  0  0  0
   28.8911   -7.7282   -0.3786 C   0  0  0  0  0  0  0  0  0  0  0  0
   29.3946   -7.0837    0.7431 C   0  0  0  0  0  0  0  0  0  0  0  0
   29.3878   -5.6985    0.8136 C   0  0  0  0  0  0  0  0  0  0  0  0
   24.3395   -0.0521   -0.0198 H   0  0  0  0  0  0  0  0  0  0  0  0
   24.3135   -2.6631   -0.1357 H   0  0  0  0  0  0  0  0  0  0  0  0
   26.2107   -4.5662   -0.1969 H   0  0  0  0  0  0  0  0  0  0  0  0
   31.5178   -4.5236   -0.2429 H   0  0  0  0  0  0  0  0  0  0  0  0
   33.3882   -2.5999   -0.1221 H   0  0  0  0  0  0  0  0  0  0  0  0
   33.3409    2.6569    0.0794 H   0  0  0  0  0  0  0  0  0  0  0  0
   31.4365    4.5491    0.1514 H   0  0  0  0  0  0  0  0  0  0  0  0
   27.8232    5.1768   -1.6382 H   0  0  0  0  0  0  0  0  0  0  0  0
   27.7923    7.6412   -1.4970 H   0  0  0  0  0  0  0  0  0  0  0  0
   28.7435    8.7834    0.4825 H   0  0  0  0  0  0  0  0  0  0  0  0
   29.7198    7.4468    2.3232 H   0  0  0  0  0  0  0  0  0  0  0  0
   29.7392    4.9818    2.1879 H   0  0  0  0  0  0  0  0  0  0  0  0
   26.1292    4.4858    0.3171 H   0  0  0  0  0  0  0  0  0  0  0  0
   24.2670    2.5531    0.1807 H   0  0  0  0  0  0  0  0  0  0  0  0
   27.9712   -5.0146   -2.1874 H   0  0  0  0  0  0  0  0  0  0  0  0
   27.9850   -7.4803   -2.3098 H   0  0  0  0  0  0  0  0  0  0  0  0
   28.8993   -8.8110   -0.4333 H   0  0  0  0  0  0  0  0  0  0  0  0
   29.7946   -7.6624    1.5684 H   0  0  0  0  0  0  0  0  0  0  0  0
   29.7717   -5.1967    1.6950 H   0  0  0  0  0  0  0  0  0  0  0  0
   55.7805    0.0526    0.0211 Cu  0  0  0  0  0  0  0  0  0  0  0  0
   59.1874    0.0778   -0.0321 C   0  0  0  0  0  0  0  0  0  0  0  0
   58.5536    1.3113   -0.0408 C   0  0  0  0  0  0  0  0  0  0  0  0
   59.2306    2.5765   -0.0391 C   0  0  0  0  0  0  0  0  0  0  0  0
   58.2732    3.5367   -0.0276 C   0  0  0  0  0  0  0  0  0  0  0  0
   57.0014    2.8662   -0.0307 C   0  0  0  0  0  0  0  0  0  0  0  0
   57.2032    1.5158   -0.0328 N   0  0  0  0  0  0  0  0  0  0  0  0
   55.7584    3.5024   -0.0031 C   0  0  0  0  0  0  0  0  0  0  0  0
   54.5247    2.8503    0.0338 C   0  0  0  0  0  0  0  0  0  0  0  0
   53.2482    3.5068    0.0192 C   0  0  0  0  0  0  0  0  0  0  0  0
   52.3003    2.5358    0.0417 C   0  0  0  0  0  0  0  0  0  0  0  0
   54.3334    1.4937    0.0548 N   0  0  0  0  0  0  0  0  0  0  0  0
   52.9892    1.2804    0.0622 C   0  0  0  0  0  0  0  0  0  0  0  0
   52.3512    0.0274    0.0664 C   0  0  0  0  0  0  0  0  0  0  0  0
   53.0081   -1.2158    0.0580 C   0  0  0  0  0  0  0  0  0  0  0  0
   52.3381   -2.4809    0.0279 C   0  0  0  0  0  0  0  0  0  0  0  0
   53.3005   -3.4380    0.0195 C   0  0  0  0  0  0  0  0  0  0  0  0
   54.5668   -2.7629    0.0524 C   0  0  0  0  0  0  0  0  0  0  0  0
   55.8104   -3.3975    0.0454 C   0  0  0  0  0  0  0  0  0  0  0  0
   55.8227   -4.8823    0.0576 C   0  0  0  0  0  0  0  0  0  0  0  0
   56.3687   -5.5943   -1.0111 C   0  0  0  0  0  0  0  0  0  0  0  0
   56.3774   -6.9811   -0.9985 C   0  0  0  0  0  0  0  0  0  0  0  0
   55.8465   -7.6730    0.0817 C   0  0  0  0  0  0  0  0  0  0  0  0
   55.3041   -6.9718    1.1501 C   0  0  0  0  0  0  0  0  0  0  0  0
   55.2892   -5.5850    1.1388 C   0  0  0  0  0  0  0  0  0  0  0  0
   57.0444   -2.7432    0.0270 C   0  0  0  0  0  0  0  0  0  0  0  0
   58.3261   -3.3936    0.0630 C   0  0  0  0  0  0  0  0  0  0  0  0
   59.2690   -2.4192    0.0363 C   0  0  0  0  0  0  0  0  0  0  0  0
   58.5728   -1.1652   -0.0064 C   0  0  0  0  0  0  0  0  0  0  0  0
   57.2258   -1.3904   -0.0055 N   0  0  0  0  0  0  0  0  0  0  0  0
   54.3553   -1.4091    0.0660 N   0  0  0  0  0  0  0  0  0  0  0  0
   55.7496    4.9875   -0.0170 C   0  0  0  0  0  0  0  0  0  0  0  0
   56.2526    5.6860   -1.1152 C   0  0  0  0  0  0  0  0  0  0  0  0
   56.2421    7.0727   -1.1290 C   0  0  0  0  0  0  0  0  0  0  0  0
   55.7353    7.7778   -0.0458 C   0  0  0  0  0  0  0  0  0  0  0  0
   55.2359    7.0899    1.0518 C   0  0  0  0  0  0  0  0  0  0  0  0
   55.2396    5.7030    1.0668 C   0  0  0  0  0  0  0  0  0  0  0  0
   60.2725    0.0863   -0.0357 H   0  0  0  0  0  0  0  0  0  0  0  0
   60.3023    2.6993   -0.0397 H   0  0  0  0  0  0  0  0  0  0  0  0
   58.4084    4.6062   -0.0067 H   0  0  0  0  0  0  0  0  0  0  0  0
   53.1005    4.5741   -0.0170 H   0  0  0  0  0  0  0  0  0  0  0  0
   51.2280    2.6496    0.0382 H   0  0  0  0  0  0  0  0  0  0  0  0
   51.2678   -2.6104    0.0091 H   0  0  0  0  0  0  0  0  0  0  0  0
   53.1687   -4.5072   -0.0192 H   0  0  0  0  0  0  0  0  0  0  0  0
   56.7729   -5.0558   -1.8612 H   0  0  0  0  0  0  0  0  0  0  0  0
   56.7998   -7.5241   -1.8368 H   0  0  0  0  0  0  0  0  0  0  0  0
   55.8555   -8.7571    0.0909 H   0  0  0  0  0  0  0  0  0  0  0  0
   54.8909   -7.5074    1.9976 H   0  0  0  0  0  0  0  0  0  0  0  0
   54.8758   -5.0388    1.9794 H   0  0  0  0  0  0  0  0  0  0  0  0
   58.4779   -4.4598    0.1147 H   0  0  0  0  0  0  0  0  0  0  0  0
   60.3423   -2.5256    0.0512 H   0  0  0  0  0  0  0  0  0  0  0  0
   56.6385    5.1366   -1.9668 H   0  0  0  0  0  0  0  0  0  0  0  0
   56.6306    7.6052   -1.9902 H   0  0  0  0  0  0  0  0  0  0  0  0
   55.7297    8.8618   -0.0569 H   0  0  0  0  0  0  0  0  0  0  0  0
   54.8417    7.6360    1.9017 H   0  0  0  0  0  0  0  0  0  0  0  0
   54.8592    5.1673    1.9294 H   0  0  0  0  0  0  0  0  0  0  0  0
   34.8906    0.0347    0.0072 C   0  0  0  0  0  0  0  0  0  0  0  0
   33.6686    0.0287    0.0163 C   0  0  0  0  0  0  0  0  0  0  0  0
   36.2407    0.0391    0.0001 C   0  0  0  0  0  0  0  0  0  0  0  0
   37.4628    0.0397   -0.0075 C   0  0  0  0  0  0  0  0  0  0  0  0
   48.3724    0.0135    0.0619 C   0  0  0  0  0  0  0  0  0  0  0  0
   47.1503    0.0141    0.0512 C   0  0  0  0  0  0  0  0  0  0  0  0
   49.7226    0.0156    0.0663 C   0  0  0  0  0  0  0  0  0  0  0  0
   50.9446    0.0182    0.0652 C   0  0  0  0  0  0  0  0  0  0  0  0
   42.3068    0.0272    0.0099 Cu  0  0  0  0  0  0  0  0  0  0  0  0
   38.8688    0.0368   -0.0085 C   0  0  0  0  0  0  0  0  0  0  0  0
   39.5145   -1.2129   -0.0183 C   0  0  0  0  0  0  0  0  0  0  0  0
   38.8337   -2.4723    0.0080 C   0  0  0  0  0  0  0  0  0  0  0  0
   39.7880   -3.4377   -0.0089 C   0  0  0  0  0  0  0  0  0  0  0  0
   41.0588   -2.7723   -0.0530 C   0  0  0  0  0  0  0  0  0  0  0  0
   40.8590   -1.4172   -0.0541 N   0  0  0  0  0  0  0  0  0  0  0  0
   42.2977   -3.4159   -0.0645 C   0  0  0  0  0  0  0  0  0  0  0  0
   43.5399   -2.7790   -0.0477 C   0  0  0  0  0  0  0  0  0  0  0  0
   44.8073   -3.4485   -0.1177 C   0  0  0  0  0  0  0  0  0  0  0  0
   45.7667   -2.4885   -0.0886 C   0  0  0  0  0  0  0  0  0  0  0  0
   43.7467   -1.4264    0.0133 N   0  0  0  0  0  0  0  0  0  0  0  0
   45.0924   -1.2279   -0.0087 C   0  0  0  0  0  0  0  0  0  0  0  0
   45.7444    0.0175    0.0398 C   0  0  0  0  0  0  0  0  0  0  0  0
   45.0986    1.2666    0.0763 C   0  0  0  0  0  0  0  0  0  0  0  0
   45.7785    2.5233    0.1686 C   0  0  0  0  0  0  0  0  0  0  0  0
   44.8241    3.4888    0.1798 C   0  0  0  0  0  0  0  0  0  0  0  0
   43.5545    2.8265    0.0862 C   0  0  0  0  0  0  0  0  0  0  0  0
   42.3157    3.4706    0.0807 C   0  0  0  0  0  0  0  0  0  0  0  0
   42.3201    4.9554    0.1125 C   0  0  0  0  0  0  0  0  0  0  0  0
   41.7648    5.6407    1.1936 C   0  0  0  0  0  0  0  0  0  0  0  0
   41.7739    7.0272    1.2239 C   0  0  0  0  0  0  0  0  0  0  0  0
   42.3310    7.7448    0.1742 C   0  0  0  0  0  0  0  0  0  0  0  0
   42.8824    7.0699   -0.9065 C   0  0  0  0  0  0  0  0  0  0  0  0
   42.8807    5.6834   -0.9375 C   0  0  0  0  0  0  0  0  0  0  0  0
   41.0735    2.8339    0.0500 C   0  0  0  0  0  0  0  0  0  0  0  0
   39.8071    3.5060   -0.0128 C   0  0  0  0  0  0  0  0  0  0  0  0
   38.8477    2.5459   -0.0366 C   0  0  0  0  0  0  0  0  0  0  0  0
   39.5212    1.2829    0.0025 C   0  0  0  0  0  0  0  0  0  0  0  0
   40.8663    1.4800    0.0524 N   0  0  0  0  0  0  0  0  0  0  0  0
   43.7547    1.4727    0.0293 N   0  0  0  0  0  0  0  0  0  0  0  0
   42.2933   -4.9008   -0.0946 C   0  0  0  0  0  0  0  0  0  0  0  0
   41.7551   -5.5845   -1.1853 C   0  0  0  0  0  0  0  0  0  0  0  0
   41.7533   -6.9711   -1.2116 C   0  0  0  0  0  0  0  0  0  0  0  0
   42.2822   -7.6903   -0.1483 C   0  0  0  0  0  0  0  0  0  0  0  0
   42.8170   -7.0169    0.9416 C   0  0  0  0  0  0  0  0  0  0  0  0
   42.8263   -5.6304    0.9687 C   0  0  0  0  0  0  0  0  0  0  0  0
   37.7627   -2.5929    0.0429 H   0  0  0  0  0  0  0  0  0  0  0  0
   39.6480   -4.5062    0.0193 H   0  0  0  0  0  0  0  0  0  0  0  0
   44.9418   -4.5155   -0.1930 H   0  0  0  0  0  0  0  0  0  0  0  0
   46.8372   -2.6131   -0.1255 H   0  0  0  0  0  0  0  0  0  0  0  0
   46.8487    2.6421    0.2257 H   0  0  0  0  0  0  0  0  0  0  0  0
   44.9636    4.5549    0.2580 H   0  0  0  0  0  0  0  0  0  0  0  0
   41.3392    5.0811    2.0193 H   0  0  0  0  0  0  0  0  0  0  0  0
   41.3447    7.5496    2.0718 H   0  0  0  0  0  0  0  0  0  0  0  0
   42.3354    8.8286    0.1982 H   0  0  0  0  0  0  0  0  0  0  0  0
   43.3159    7.6259   -1.7304 H   0  0  0  0  0  0  0  0  0  0  0  0
   43.3023    5.1576   -1.7870 H   0  0  0  0  0  0  0  0  0  0  0  0
   39.6734    4.5752   -0.0477 H   0  0  0  0  0  0  0  0  0  0  0  0
   37.7779    2.6720   -0.0852 H   0  0  0  0  0  0  0  0  0  0  0  0
   41.3511   -5.0237   -2.0209 H   0  0  0  0  0  0  0  0  0  0  0  0
   41.3374   -7.4924   -2.0667 H   0  0  0  0  0  0  0  0  0  0  0  0
   42.2775   -8.7742   -0.1691 H   0  0  0  0  0  0  0  0  0  0  0  0
   43.2285   -7.5741    1.7760 H   0  0  0  0  0  0  0  0  0  0  0  0
   43.2345   -5.1056    1.8254 H   0  0  0  0  0  0  0  0  0  0  0  0
  2  3  4  0  0  0  0
  3  4  1  0  0  0  0
  4  5  2  0  0  0  0
  5  6  4  0  0  0  0
  1  7  1  0  0  0  0
  3  7  4  0  0  0  0
  6  7  4  0  0  0  0
  6  8  4  0  0  0  0
  8  9  4  0  0  0  0
  9 10  4  0  0  0  0
 10 11  2  0  0  0  0
  1 12  1  0  0  0  0
  9 12  4  0  0  0  0
 11 13  4  0  0  0  0
 12 13  4  0  0  0  0
 13 14  4  0  0  0  0
 14 15  4  0  0  0  0
 15 16  4  0  0  0  0
 16 17  2  0  0  0  0
 17 18  4  0  0  0  0
 18 19  4  0  0  0  0
 19 20  1  0  0  0  0
 20 21  4  0  0  0  0
 21 22  4  0  0  0  0
 22 23  4  0  0  0  0
 23 24  4  0  0  0  0
 20 25  4  0  0  0  0
 24 25  4  0  0  0  0
 19 26  4  0  0  0  0
 26 27  4  0  0  0  0
 27 28  2  0  0  0  0
  2 29  4  0  0  0  0
 28 29  1  0  0  0  0
  1 30  1  0  0  0  0
 26 30  4  0  0  0  0
 29 30  4  0  0  0  0
  1 31  1  0  0  0  0
 15 31  4  0  0  0  0
 18 31  4  0  0  0  0
  8 32  1  0  0  0  0
 32 33  4  0  0  0  0
 33 34  4  0  0  0  0
 34 35  4  0  0  0  0
 35 36  4  0  0  0  0
 32 37  4  0  0  0  0
 36 37  4  0  0  0  0
  2 38  1  0  0  0  0
  4 39  1  0  0  0  0
  5 40  1  0  0  0  0
 10 41  1  0  0  0  0
 11 42  1  0  0  0  0
 16 43  1  0  0  0  0
 17 44  1  0  0  0  0
 21 45  1  0  0  0  0
 22 46  1  0  0  0  0
 23 47  1  0  0  0  0
 24 48  1  0  0  0  0
 25 49  1  0  0  0  0
 27 50  1  0  0  0  0
 28 51  1  0  0  0  0
 33 52  1  0  0  0  0
 34 53  1  0  0  0  0
 35 54  1  0  0  0  0
 36 55  1  0  0  0  0
 37 56  1  0  0  0  0
 58 59  4  0  0  0  0
 59 60  1  0  0  0  0
 60 61  2  0  0  0  0
 61 62  4  0  0  0  0
 57 63  1  0  0  0  0
 59 63  4  0  0  0  0
 62 63  4  0  0  0  0
 62 64  4  0  0  0  0
 64 65  4  0  0  0  0
 65 66  4  0  0  0  0
 66 67  2  0  0  0  0
 57 68  1  0  0  0  0
 65 68  4  0  0  0  0
 67 69  4  0  0  0  0
 68 69  4  0  0  0  0
 69 70  4  0  0  0  0
 70 71  4  0  0  0  0
 71 72  4  0  0  0  0
 72 73  2  0  0  0  0
 73 74  4  0  0  0  0
 74 75  4  0  0  0  0
 75 76  1  0  0  0  0
 76 77  4  0  0  0  0
 77 78  4  0  0  0  0
 78 79  4  0  0  0  0
 79 80  4  0  0  0  0
 76 81  4  0  0  0  0
 80 81  4  0  0  0  0
 75 82  4  0  0  0  0
 82 83  4  0  0  0  0
 83 84  2  0  0  0  0
 58 85  4  0  0  0  0
 84 85  1  0  0  0  0
 57 86  1  0  0  0  0
 82 86  4  0  0  0  0
 85 86  4  0  0  0  0
 57 87  1  0  0  0  0
 71 87  4  0  0  0  0
 74 87  4  0  0  0  0
 64 88  1  0  0  0  0
 88 89  4  0  0  0  0
 89 90  4  0  0  0  0
 90 91  4  0  0  0  0
 91 92  4  0  0  0  0
 88 93  4  0  0  0  0
 92 93  4  0  0  0  0
 58 94  1  0  0  0  0
 60 95  1  0  0  0  0
 61 96  1  0  0  0  0
 66 97  1  0  0  0  0
 67 98  1  0  0  0  0
 72 99  1  0  0  0  0
 73100  1  0  0  0  0
 77101  1  0  0  0  0
 78102  1  0  0  0  0
 79103  1  0  0  0  0
 80104  1  0  0  0  0
 81105  1  0  0  0  0
 83106  1  0  0  0  0
 84107  1  0  0  0  0
 89108  1  0  0  0  0
 90109  1  0  0  0  0
 91110  1  0  0  0  0
 92111  1  0  0  0  0
 93112  1  0  0  0  0
 14114  4  0  0  0  0
113114  3  0  0  0  0
113115  4  0  0  0  0
115116  3  0  0  0  0
117118  3  0  0  0  0
117119  4  0  0  0  0
 70120  4  0  0  0  0
119120  3  0  0  0  0
116122  4  0  0  0  0
122123  4  0  0  0  0
123124  4  0  0  0  0
124125  2  0  0  0  0
125126  4  0  0  0  0
121127  1  0  0  0  0
123127  4  0  0  0  0
126127  4  0  0  0  0
126128  4  0  0  0  0
128129  4  0  0  0  0
129130  4  0  0  0  0
130131  2  0  0  0  0
121132  1  0  0  0  0
129132  4  0  0  0  0
131133  4  0  0  0  0
132133  4  0  0  0  0
118134  4  0  0  0  0
133134  4  0  0  0  0
134135  4  0  0  0  0
135136  4  0  0  0  0
136137  2  0  0  0  0
137138  4  0  0  0  0
138139  4  0  0  0  0
139140  1  0  0  0  0
140141  4  0  0  0  0
141142  4  0  0  0  0
142143  4  0  0  0  0
143144  4  0  0  0  0
140145  4  0  0  0  0
144145  4  0  0  0  0
139146  4  0  0  0  0
146147  4  0  0  0  0
147148  2  0  0  0  0
122149  4  0  0  0  0
148149  4  0  0  0  0
121150  1  0  0  0  0
146150  4  0  0  0  0
149150  4  0  0  0  0
121151  1  0  0  0  0
135151  4  0  0  0  0
138151  4  0  0  0  0
128152  1  0  0  0  0
152153  4  0  0  0  0
153154  4  0  0  0  0
154155  4  0  0  0  0
155156  4  0  0  0  0
152157  4  0  0  0  0
156157  4  0  0  0  0
124158  1  0  0  0  0
125159  1  0  0  0  0
130160  1  0  0  0  0
131161  1  0  0  0  0
136162  1  0  0  0  0
137163  1  0  0  0  0
141164  1  0  0  0  0
142165  1  0  0  0  0
143166  1  0  0  0  0
144167  1  0  0  0  0
145168  1  0  0  0  0
147169  1  0  0  0  0
148170  1  0  0  0  0
153171  1  0  0  0  0
154172  1  0  0  0  0
155173  1  0  0  0  0
156174  1  0  0  0  0
157175  1  0  0  0  0
M  END
