 xtb: 6.5.1 (b24c23e)
          07302204243D

191220  0     0  0            999 V2000
   29.1181    0.0272    0.0333 Ni  0  0  0  0  0  0  0  0  0  0  0  0
   25.7317    0.1100    0.1395 C   0  0  0  0  0  0  0  0  0  0  0  0
   26.3849    1.1263   -0.5271 C   0  0  0  0  0  0  0  0  0  0  0  0
   25.7141    2.1855   -1.2158 C   0  0  0  0  0  0  0  0  0  0  0  0
   26.6744    3.0363   -1.6493 C   0  0  0  0  0  0  0  0  0  0  0  0
   27.9306    2.5054   -1.2080 C   0  0  0  0  0  0  0  0  0  0  0  0
   27.7450    1.3092   -0.5609 N   0  0  0  0  0  0  0  0  0  0  0  0
   29.1476    3.1613   -1.3551 C   0  0  0  0  0  0  0  0  0  0  0  0
   29.1635    4.5127   -1.9595 C   0  0  0  0  0  0  0  0  0  0  0  0
   29.9016    4.7651   -3.1187 C   0  0  0  0  0  0  0  0  0  0  0  0
   29.9158    6.0247   -3.6905 C   0  0  0  0  0  0  0  0  0  0  0  0
   29.2004    7.0705   -3.1014 C   0  0  0  0  0  0  0  0  0  0  0  0
   29.1803    8.3218   -3.6921 N   0  0  0  0  0  0  0  0  0  0  0  0
   28.4579    6.8259   -1.9432 C   0  0  0  0  0  0  0  0  0  0  0  0
   28.4408    5.5607   -1.3837 C   0  0  0  0  0  0  0  0  0  0  0  0
   30.3500    2.5970   -0.9469 C   0  0  0  0  0  0  0  0  0  0  0  0
   31.6096    3.2740   -1.0052 C   0  0  0  0  0  0  0  0  0  0  0  0
   32.5542    2.3792   -0.6259 C   0  0  0  0  0  0  0  0  0  0  0  0
   30.5187    1.3100   -0.4873 N   0  0  0  0  0  0  0  0  0  0  0  0
   31.8693    1.1621   -0.3294 C   0  0  0  0  0  0  0  0  0  0  0  0
   32.5259   -0.0324   -0.0179 C   0  0  0  0  0  0  0  0  0  0  0  0
   31.8383   -1.2080    0.2987 C   0  0  0  0  0  0  0  0  0  0  0  0
   32.4883   -2.4535    0.5520 C   0  0  0  0  0  0  0  0  0  0  0  0
   31.5228   -3.3256    0.9320 C   0  0  0  0  0  0  0  0  0  0  0  0
   30.2867   -2.6042    0.9246 C   0  0  0  0  0  0  0  0  0  0  0  0
   30.4879   -1.3136    0.4880 N   0  0  0  0  0  0  0  0  0  0  0  0
   29.0798   -3.1294    1.3697 C   0  0  0  0  0  0  0  0  0  0  0  0
   29.0620   -4.4937    1.9442 C   0  0  0  0  0  0  0  0  0  0  0  0
   29.8379   -4.8052    3.0637 C   0  0  0  0  0  0  0  0  0  0  0  0
   29.8174   -6.0762    3.6097 C   0  0  0  0  0  0  0  0  0  0  0  0
   29.0270   -7.0743    3.0339 C   0  0  0  0  0  0  0  0  0  0  0  0
   28.9724   -8.3351    3.6014 N   0  0  0  0  0  0  0  0  0  0  0  0
   28.2463   -6.7703    1.9155 C   0  0  0  0  0  0  0  0  0  0  0  0
   28.2648   -5.4939    1.3820 C   0  0  0  0  0  0  0  0  0  0  0  0
   27.8882   -2.4160    1.3021 C   0  0  0  0  0  0  0  0  0  0  0  0
   26.6372   -2.8940    1.8130 C   0  0  0  0  0  0  0  0  0  0  0  0
   25.6969   -1.9834    1.4659 C   0  0  0  0  0  0  0  0  0  0  0  0
   26.3752   -0.9447    0.7537 C   0  0  0  0  0  0  0  0  0  0  0  0
   27.7233   -1.1973    0.6927 N   0  0  0  0  0  0  0  0  0  0  0  0
   24.6489    0.1382    0.1770 H   0  0  0  0  0  0  0  0  0  0  0  0
   24.6452    2.2509   -1.3441 H   0  0  0  0  0  0  0  0  0  0  0  0
   26.5550    3.9428   -2.2201 H   0  0  0  0  0  0  0  0  0  0  0  0
   30.4528    3.9567   -3.5865 H   0  0  0  0  0  0  0  0  0  0  0  0
   30.4828    6.2053   -4.5972 H   0  0  0  0  0  0  0  0  0  0  0  0
   29.9614    8.5205   -4.2966 H   0  0  0  0  0  0  0  0  0  0  0  0
   28.9391    9.0809   -3.0752 H   0  0  0  0  0  0  0  0  0  0  0  0
   27.8986    7.6329   -1.4826 H   0  0  0  0  0  0  0  0  0  0  0  0
   27.8773    5.3836   -0.4741 H   0  0  0  0  0  0  0  0  0  0  0  0
   31.7439    4.3041   -1.2928 H   0  0  0  0  0  0  0  0  0  0  0  0
   33.6209    2.5159   -0.5506 H   0  0  0  0  0  0  0  0  0  0  0  0
   33.5476   -2.6242    0.4466 H   0  0  0  0  0  0  0  0  0  0  0  0
   31.6286   -4.3665    1.1907 H   0  0  0  0  0  0  0  0  0  0  0  0
   30.4465   -4.0336    3.5223 H   0  0  0  0  0  0  0  0  0  0  0  0
   30.4147   -6.3024    4.4863 H   0  0  0  0  0  0  0  0  0  0  0  0
   29.7686   -8.5837    4.1665 H   0  0  0  0  0  0  0  0  0  0  0  0
   28.6664   -9.0689    2.9827 H   0  0  0  0  0  0  0  0  0  0  0  0
   27.6286   -7.5400    1.4658 H   0  0  0  0  0  0  0  0  0  0  0  0
   27.6693   -5.2706    0.5035 H   0  0  0  0  0  0  0  0  0  0  0  0
   26.5082   -3.8079    2.3698 H   0  0  0  0  0  0  0  0  0  0  0  0
   24.6370   -1.9971    1.6645 H   0  0  0  0  0  0  0  0  0  0  0  0
   61.1172   -0.0116    0.0497 Ni  0  0  0  0  0  0  0  0  0  0  0  0
   64.5049    0.0281    0.1746 C   0  0  0  0  0  0  0  0  0  0  0  0
   63.8510   -1.0869    0.6572 C   0  0  0  0  0  0  0  0  0  0  0  0
   64.5220   -2.2445    1.1630 C   0  0  0  0  0  0  0  0  0  0  0  0
   63.5615   -3.0759    1.6321 C   0  0  0  0  0  0  0  0  0  0  0  0
   62.3051   -2.4165    1.4293 C   0  0  0  0  0  0  0  0  0  0  0  0
   62.4907   -1.2166    0.7892 N   0  0  0  0  0  0  0  0  0  0  0  0
   61.0873   -2.9053    1.8884 C   0  0  0  0  0  0  0  0  0  0  0  0
   61.0722   -4.1573    2.6786 C   0  0  0  0  0  0  0  0  0  0  0  0
   60.3421   -5.2656    2.2421 C   0  0  0  0  0  0  0  0  0  0  0  0
   60.3300   -6.4399    2.9734 C   0  0  0  0  0  0  0  0  0  0  0  0
   61.0398   -6.5258    4.1740 C   0  0  0  0  0  0  0  0  0  0  0  0
   61.0627   -7.7112    4.8876 N   0  0  0  0  0  0  0  0  0  0  0  0
   61.7741   -5.4224    4.6165 C   0  0  0  0  0  0  0  0  0  0  0  0
   61.7889   -4.2552    3.8739 C   0  0  0  0  0  0  0  0  0  0  0  0
   59.8839   -2.2570    1.6389 C   0  0  0  0  0  0  0  0  0  0  0  0
   58.6233   -2.6871    2.1624 C   0  0  0  0  0  0  0  0  0  0  0  0
   57.6786   -1.8761    1.6271 C   0  0  0  0  0  0  0  0  0  0  0  0
   59.7156   -1.1589    0.8254 N   0  0  0  0  0  0  0  0  0  0  0  0
   58.3644   -0.9486    0.7857 C   0  0  0  0  0  0  0  0  0  0  0  0
   57.7082   -0.0197   -0.0273 C   0  0  0  0  0  0  0  0  0  0  0  0
   58.3956    0.9025   -0.8218 C   0  0  0  0  0  0  0  0  0  0  0  0
   57.7444    1.8113   -1.7096 C   0  0  0  0  0  0  0  0  0  0  0  0
   58.7103    2.6100   -2.2253 C   0  0  0  0  0  0  0  0  0  0  0  0
   59.9479    2.1962   -1.6373 C   0  0  0  0  0  0  0  0  0  0  0  0
   59.7468    1.1148   -0.8087 N   0  0  0  0  0  0  0  0  0  0  0  0
   61.1567    2.8519   -1.8350 C   0  0  0  0  0  0  0  0  0  0  0  0
   61.1761    4.0848   -2.6547 C   0  0  0  0  0  0  0  0  0  0  0  0
   60.4129    5.1964   -2.2889 C   0  0  0  0  0  0  0  0  0  0  0  0
   60.4349    6.3528   -3.0480 C   0  0  0  0  0  0  0  0  0  0  0  0
   61.2138    6.4167   -4.2064 C   0  0  0  0  0  0  0  0  0  0  0  0
   61.2697    7.5849   -4.9460 N   0  0  0  0  0  0  0  0  0  0  0  0
   61.9823    5.3102   -4.5775 C   0  0  0  0  0  0  0  0  0  0  0  0
   61.9625    4.1613   -3.8069 C   0  0  0  0  0  0  0  0  0  0  0  0
   62.3496    2.3955   -1.2857 C   0  0  0  0  0  0  0  0  0  0  0  0
   63.6023    3.0813   -1.4086 C   0  0  0  0  0  0  0  0  0  0  0  0
   64.5424    2.2868   -0.8440 C   0  0  0  0  0  0  0  0  0  0  0  0
   63.8623    1.1221   -0.3672 C   0  0  0  0  0  0  0  0  0  0  0  0
   62.5135    1.2142   -0.6067 N   0  0  0  0  0  0  0  0  0  0  0  0
   65.5877    0.0425    0.2176 H   0  0  0  0  0  0  0  0  0  0  0  0
   65.5910   -2.3865    1.1489 H   0  0  0  0  0  0  0  0  0  0  0  0
   63.6810   -4.0517    2.0741 H   0  0  0  0  0  0  0  0  0  0  0  0
   59.7957   -5.2096    1.3069 H   0  0  0  0  0  0  0  0  0  0  0  0
   59.7693   -7.2976    2.6180 H   0  0  0  0  0  0  0  0  0  0  0  0
   60.2858   -8.3287    4.7141 H   0  0  0  0  0  0  0  0  0  0  0  0
   61.2993   -7.6178    5.8624 H   0  0  0  0  0  0  0  0  0  0  0  0
   62.3290   -5.4838    5.5463 H   0  0  0  0  0  0  0  0  0  0  0  0
   62.3462   -3.3971    4.2337 H   0  0  0  0  0  0  0  0  0  0  0  0
   58.4884   -3.5006    2.8564 H   0  0  0  0  0  0  0  0  0  0  0  0
   56.6112   -1.8932    1.7777 H   0  0  0  0  0  0  0  0  0  0  0  0
   56.6843    1.8228   -1.9052 H   0  0  0  0  0  0  0  0  0  0  0  0
   58.6041    3.4066   -2.9436 H   0  0  0  0  0  0  0  0  0  0  0  0
   59.8131    5.1579   -1.3861 H   0  0  0  0  0  0  0  0  0  0  0  0
   59.8475    7.2135   -2.7472 H   0  0  0  0  0  0  0  0  0  0  0  0
   60.4792    8.1994   -4.8337 H   0  0  0  0  0  0  0  0  0  0  0  0
   61.5648    7.4709   -5.9024 H   0  0  0  0  0  0  0  0  0  0  0  0
   62.5913    5.3549   -5.4738 H   0  0  0  0  0  0  0  0  0  0  0  0
   62.5485    3.3008   -4.1109 H   0  0  0  0  0  0  0  0  0  0  0  0
   63.7324    4.0492   -1.8646 H   0  0  0  0  0  0  0  0  0  0  0  0
   65.6033    2.4566   -0.7503 H   0  0  0  0  0  0  0  0  0  0  0  0
   37.7263   -0.0779   -0.0437 C   0  0  0  0  0  0  0  0  0  0  0  0
   36.4982   -0.0743   -0.0407 C   0  0  0  0  0  0  0  0  0  0  0  0
   35.1535   -0.0652   -0.0363 C   0  0  0  0  0  0  0  0  0  0  0  0
   33.9300   -0.0528   -0.0290 C   0  0  0  0  0  0  0  0  0  0  0  0
   39.0709   -0.0753   -0.0404 C   0  0  0  0  0  0  0  0  0  0  0  0
   40.2946   -0.0711   -0.0352 C   0  0  0  0  0  0  0  0  0  0  0  0
   53.7349   -0.0152   -0.0678 C   0  0  0  0  0  0  0  0  0  0  0  0
   52.5069   -0.0154   -0.0683 C   0  0  0  0  0  0  0  0  0  0  0  0
   51.1619   -0.0160   -0.0625 C   0  0  0  0  0  0  0  0  0  0  0  0
   49.9383   -0.0181   -0.0494 C   0  0  0  0  0  0  0  0  0  0  0  0
   55.0801   -0.0159   -0.0603 C   0  0  0  0  0  0  0  0  0  0  0  0
   56.3035   -0.0168   -0.0489 C   0  0  0  0  0  0  0  0  0  0  0  0
   45.1163   -0.0292    0.0104 Ni  0  0  0  0  0  0  0  0  0  0  0  0
   41.6988   -0.0599   -0.0255 C   0  0  0  0  0  0  0  0  0  0  0  0
   42.3641    1.0796   -0.4874 C   0  0  0  0  0  0  0  0  0  0  0  0
   41.6791    2.2404   -0.9578 C   0  0  0  0  0  0  0  0  0  0  0  0
   42.6262    3.1783   -1.2004 C   0  0  0  0  0  0  0  0  0  0  0  0
   43.8893    2.5811   -0.8917 C   0  0  0  0  0  0  0  0  0  0  0  0
   43.7163    1.2826   -0.4663 N   0  0  0  0  0  0  0  0  0  0  0  0
   45.0961    3.2672   -0.9337 C   0  0  0  0  0  0  0  0  0  0  0  0
   45.0886    4.6964   -1.3298 C   0  0  0  0  0  0  0  0  0  0  0  0
   44.6926    5.0781   -2.6133 C   0  0  0  0  0  0  0  0  0  0  0  0
   44.6892    6.4106   -2.9867 C   0  0  0  0  0  0  0  0  0  0  0  0
   45.0826    7.3950   -2.0764 C   0  0  0  0  0  0  0  0  0  0  0  0
   45.0337    8.7322   -2.4300 N   0  0  0  0  0  0  0  0  0  0  0  0
   45.4692    7.0210   -0.7869 C   0  0  0  0  0  0  0  0  0  0  0  0
   45.4777    5.6857   -0.4242 C   0  0  0  0  0  0  0  0  0  0  0  0
   46.3121    2.6699   -0.6277 C   0  0  0  0  0  0  0  0  0  0  0  0
   47.5695    3.3474   -0.7125 C   0  0  0  0  0  0  0  0  0  0  0  0
   48.5299    2.4242   -0.4654 C   0  0  0  0  0  0  0  0  0  0  0  0
   46.5013    1.3416   -0.3171 N   0  0  0  0  0  0  0  0  0  0  0  0
   47.8576    1.1862   -0.2352 C   0  0  0  0  0  0  0  0  0  0  0  0
   48.5338   -0.0191   -0.0252 C   0  0  0  0  0  0  0  0  0  0  0  0
   47.8684   -1.2242    0.2172 C   0  0  0  0  0  0  0  0  0  0  0  0
   48.5483   -2.4641    0.4118 C   0  0  0  0  0  0  0  0  0  0  0  0
   47.5992   -3.3847    0.7088 C   0  0  0  0  0  0  0  0  0  0  0  0
   46.3430   -2.7004    0.7023 C   0  0  0  0  0  0  0  0  0  0  0  0
   46.5171   -1.3775    0.3629 N   0  0  0  0  0  0  0  0  0  0  0  0
   45.1354   -3.3035    1.0306 C   0  0  0  0  0  0  0  0  0  0  0  0
   45.1464   -4.7153    1.4789 C   0  0  0  0  0  0  0  0  0  0  0  0
   44.4576   -5.6966    0.7620 C   0  0  0  0  0  0  0  0  0  0  0  0
   44.4722   -7.0172    1.1741 C   0  0  0  0  0  0  0  0  0  0  0  0
   45.1769   -7.3856    2.3231 C   0  0  0  0  0  0  0  0  0  0  0  0
   45.1530   -8.6960    2.7664 N   0  0  0  0  0  0  0  0  0  0  0  0
   45.8576   -6.4074    3.0529 C   0  0  0  0  0  0  0  0  0  0  0  0
   45.8471   -5.0910    2.6276 C   0  0  0  0  0  0  0  0  0  0  0  0
   43.9189   -2.6384    0.9476 C   0  0  0  0  0  0  0  0  0  0  0  0
   42.6663   -3.2248    1.3133 C   0  0  0  0  0  0  0  0  0  0  0  0
   41.7054   -2.3210    1.0027 C   0  0  0  0  0  0  0  0  0  0  0  0
   42.3751   -1.1808    0.4652 C   0  0  0  0  0  0  0  0  0  0  0  0
   43.7301   -1.3635    0.4621 N   0  0  0  0  0  0  0  0  0  0  0  0
   40.6094    2.3188   -1.0663 H   0  0  0  0  0  0  0  0  0  0  0  0
   42.4885    4.1907   -1.5430 H   0  0  0  0  0  0  0  0  0  0  0  0
   44.4024    4.3183   -3.3307 H   0  0  0  0  0  0  0  0  0  0  0  0
   44.3849    6.6950   -3.9881 H   0  0  0  0  0  0  0  0  0  0  0  0
   45.0738    8.9133   -3.4203 H   0  0  0  0  0  0  0  0  0  0  0  0
   45.6200    9.3400   -1.8806 H   0  0  0  0  0  0  0  0  0  0  0  0
   45.7636    7.7816   -0.0720 H   0  0  0  0  0  0  0  0  0  0  0  0
   45.7720    5.4034    0.5807 H   0  0  0  0  0  0  0  0  0  0  0  0
   47.6940    4.3910   -0.9505 H   0  0  0  0  0  0  0  0  0  0  0  0
   49.6002    2.5525   -0.4484 H   0  0  0  0  0  0  0  0  0  0  0  0
   49.6148   -2.5978    0.3280 H   0  0  0  0  0  0  0  0  0  0  0  0
   47.7285   -4.4361    0.9073 H   0  0  0  0  0  0  0  0  0  0  0  0
   43.9224   -5.4214   -0.1403 H   0  0  0  0  0  0  0  0  0  0  0  0
   43.9400   -7.7716    0.6049 H   0  0  0  0  0  0  0  0  0  0  0  0
   45.9134   -8.9555    3.3741 H   0  0  0  0  0  0  0  0  0  0  0  0
   44.9419   -9.3825    2.0600 H   0  0  0  0  0  0  0  0  0  0  0  0
   46.3949   -6.6850    3.9531 H   0  0  0  0  0  0  0  0  0  0  0  0
   46.3717   -4.3361    3.2030 H   0  0  0  0  0  0  0  0  0  0  0  0
   42.5465   -4.2004    1.7553 H   0  0  0  0  0  0  0  0  0  0  0  0
   40.6375   -2.4029    1.1254 H   0  0  0  0  0  0  0  0  0  0  0  0
  2  3  4  0  0  0  0
  3  4  4  0  0  0  0
  4  5  2  0  0  0  0
  5  6  4  0  0  0  0
  1  7  1  0  0  0  0
  3  7  4  0  0  0  0
  6  7  4  0  0  0  0
  6  8  4  0  0  0  0
  8  9  1  0  0  0  0
  9 10  4  0  0  0  0
 10 11  4  0  0  0  0
 11 12  4  0  0  0  0
 12 13  1  0  0  0  0
 12 14  4  0  0  0  0
  9 15  4  0  0  0  0
 14 15  4  0  0  0  0
  8 16  4  0  0  0  0
 16 17  4  0  0  0  0
 17 18  2  0  0  0  0
  1 19  1  0  0  0  0
 16 19  4  0  0  0  0
 18 20  4  0  0  0  0
 19 20  4  0  0  0  0
 20 21  4  0  0  0  0
 21 22  4  0  0  0  0
 22 23  4  0  0  0  0
 23 24  2  0  0  0  0
 24 25  4  0  0  0  0
  1 26  1  0  0  0  0
 22 26  4  0  0  0  0
 25 26  4  0  0  0  0
 25 27  4  0  0  0  0
 27 28  1  0  0  0  0
 28 29  4  0  0  0  0
 29 30  4  0  0  0  0
 30 31  4  0  0  0  0
 31 32  1  0  0  0  0
 31 33  4  0  0  0  0
 28 34  4  0  0  0  0
 33 34  4  0  0  0  0
 27 35  4  0  0  0  0
 35 36  4  0  0  0  0
 36 37  2  0  0  0  0
  2 38  4  0  0  0  0
 37 38  4  0  0  0  0
  1 39  1  0  0  0  0
 35 39  4  0  0  0  0
 38 39  4  0  0  0  0
  2 40  1  0  0  0  0
  4 41  1  0  0  0  0
  5 42  1  0  0  0  0
 10 43  1  0  0  0  0
 11 44  1  0  0  0  0
 13 45  1  0  0  0  0
 13 46  1  0  0  0  0
 14 47  1  0  0  0  0
 15 48  1  0  0  0  0
 17 49  1  0  0  0  0
 18 50  1  0  0  0  0
 23 51  1  0  0  0  0
 24 52  1  0  0  0  0
 29 53  1  0  0  0  0
 30 54  1  0  0  0  0
 32 55  1  0  0  0  0
 32 56  1  0  0  0  0
 33 57  1  0  0  0  0
 34 58  1  0  0  0  0
 36 59  1  0  0  0  0
 37 60  1  0  0  0  0
 62 63  4  0  0  0  0
 63 64  4  0  0  0  0
 64 65  2  0  0  0  0
 65 66  4  0  0  0  0
 61 67  1  0  0  0  0
 63 67  4  0  0  0  0
 66 67  4  0  0  0  0
 66 68  4  0  0  0  0
 68 69  1  0  0  0  0
 69 70  4  0  0  0  0
 70 71  4  0  0  0  0
 71 72  4  0  0  0  0
 72 73  1  0  0  0  0
 72 74  4  0  0  0  0
 69 75  4  0  0  0  0
 74 75  4  0  0  0  0
 68 76  4  0  0  0  0
 76 77  4  0  0  0  0
 77 78  2  0  0  0  0
 61 79  1  0  0  0  0
 76 79  4  0  0  0  0
 78 80  4  0  0  0  0
 79 80  4  0  0  0  0
 80 81  4  0  0  0  0
 81 82  4  0  0  0  0
 82 83  4  0  0  0  0
 83 84  2  0  0  0  0
 84 85  4  0  0  0  0
 61 86  1  0  0  0  0
 82 86  4  0  0  0  0
 85 86  4  0  0  0  0
 85 87  4  0  0  0  0
 87 88  1  0  0  0  0
 88 89  4  0  0  0  0
 89 90  4  0  0  0  0
 90 91  4  0  0  0  0
 91 92  1  0  0  0  0
 91 93  4  0  0  0  0
 88 94  4  0  0  0  0
 93 94  4  0  0  0  0
 87 95  4  0  0  0  0
 95 96  4  0  0  0  0
 96 97  2  0  0  0  0
 62 98  4  0  0  0  0
 97 98  4  0  0  0  0
 61 99  1  0  0  0  0
 95 99  4  0  0  0  0
 98 99  4  0  0  0  0
 62100  1  0  0  0  0
 64101  1  0  0  0  0
 65102  1  0  0  0  0
 70103  1  0  0  0  0
 71104  1  0  0  0  0
 73105  1  0  0  0  0
 73106  1  0  0  0  0
 74107  1  0  0  0  0
 75108  1  0  0  0  0
 77109  1  0  0  0  0
 78110  1  0  0  0  0
 83111  1  0  0  0  0
 84112  1  0  0  0  0
 89113  1  0  0  0  0
 90114  1  0  0  0  0
 92115  1  0  0  0  0
 92116  1  0  0  0  0
 93117  1  0  0  0  0
 94118  1  0  0  0  0
 96119  1  0  0  0  0
 97120  1  0  0  0  0
121122  3  0  0  0  0
122123  4  0  0  0  0
 21124  4  0  0  0  0
123124  3  0  0  0  0
121125  4  0  0  0  0
125126  3  0  0  0  0
127128  3  0  0  0  0
128129  4  0  0  0  0
129130  3  0  0  0  0
127131  4  0  0  0  0
 81132  4  0  0  0  0
131132  3  0  0  0  0
126134  4  0  0  0  0
134135  4  0  0  0  0
135136  4  0  0  0  0
136137  2  0  0  0  0
137138  4  0  0  0  0
133139  1  0  0  0  0
135139  4  0  0  0  0
138139  4  0  0  0  0
138140  4  0  0  0  0
140141  1  0  0  0  0
141142  4  0  0  0  0
142143  4  0  0  0  0
143144  4  0  0  0  0
144145  1  0  0  0  0
144146  4  0  0  0  0
141147  4  0  0  0  0
146147  4  0  0  0  0
140148  4  0  0  0  0
148149  4  0  0  0  0
149150  2  0  0  0  0
133151  1  0  0  0  0
148151  4  0  0  0  0
150152  4  0  0  0  0
151152  4  0  0  0  0
130153  4  0  0  0  0
152153  4  0  0  0  0
153154  4  0  0  0  0
154155  4  0  0  0  0
155156  2  0  0  0  0
156157  4  0  0  0  0
133158  1  0  0  0  0
154158  4  0  0  0  0
157158  4  0  0  0  0
157159  4  0  0  0  0
159160  1  0  0  0  0
160161  4  0  0  0  0
161162  4  0  0  0  0
162163  4  0  0  0  0
163164  1  0  0  0  0
163165  4  0  0  0  0
160166  4  0  0  0  0
165166  4  0  0  0  0
159167  4  0  0  0  0
167168  4  0  0  0  0
168169  2  0  0  0  0
134170  4  0  0  0  0
169170  4  0  0  0  0
133171  1  0  0  0  0
167171  4  0  0  0  0
170171  4  0  0  0  0
136172  1  0  0  0  0
137173  1  0  0  0  0
142174  1  0  0  0  0
143175  1  0  0  0  0
145176  1  0  0  0  0
145177  1  0  0  0  0
146178  1  0  0  0  0
147179  1  0  0  0  0
149180  1  0  0  0  0
150181  1  0  0  0  0
155182  1  0  0  0  0
156183  1  0  0  0  0
161184  1  0  0  0  0
162185  1  0  0  0  0
164186  1  0  0  0  0
164187  1  0  0  0  0
165188  1  0  0  0  0
166189  1  0  0  0  0
168190  1  0  0  0  0
169191  1  0  0  0  0
M  END
