 xtb: 6.5.1 (b24c23e)
          07302200523D

189218  0     0  0            999 V2000
   28.6796    0.0210    0.0533 Fe  0  0  0  0  0  0  0  0  0  0  0  0
   25.2943    0.0285    0.1693 C   0  0  0  0  0  0  0  0  0  0  0  0
   25.9434    1.2457    0.2019 C   0  0  0  0  0  0  0  0  0  0  0  0
   25.2681    2.5073    0.2500 C   0  0  0  0  0  0  0  0  0  0  0  0
   26.2260    3.4555    0.3790 C   0  0  0  0  0  0  0  0  0  0  0  0
   27.4850    2.7692    0.4261 C   0  0  0  0  0  0  0  0  0  0  0  0
   27.3007    1.4224    0.2686 N   0  0  0  0  0  0  0  0  0  0  0  0
   28.7051    3.3924    0.6678 C   0  0  0  0  0  0  0  0  0  0  0  0
   28.7168    4.8489    0.9354 C   0  0  0  0  0  0  0  0  0  0  0  0
   28.0303    5.3734    2.0331 C   0  0  0  0  0  0  0  0  0  0  0  0
   28.0429    6.7330    2.2875 C   0  0  0  0  0  0  0  0  0  0  0  0
   28.7408    7.5982    1.4395 C   0  0  0  0  0  0  0  0  0  0  0  0
   28.7525    8.9984    1.6963 C   0  0  0  0  0  0  0  0  0  0  0  0
   28.7612   10.1303    1.9042 N   0  0  0  0  0  0  0  0  0  0  0  0
   29.4272    7.0784    0.3381 C   0  0  0  0  0  0  0  0  0  0  0  0
   29.4163    5.7169    0.0938 C   0  0  0  0  0  0  0  0  0  0  0  0
   29.9115    2.7059    0.6806 C   0  0  0  0  0  0  0  0  0  0  0  0
   31.1727    3.3052    1.0018 C   0  0  0  0  0  0  0  0  0  0  0  0
   32.1167    2.3504    0.8198 C   0  0  0  0  0  0  0  0  0  0  0  0
   30.0838    1.3836    0.3481 N   0  0  0  0  0  0  0  0  0  0  0  0
   31.4297    1.1716    0.3938 C   0  0  0  0  0  0  0  0  0  0  0  0
   32.0872    0.0022   -0.0093 C   0  0  0  0  0  0  0  0  0  0  0  0
   31.4041   -1.1532   -0.4103 C   0  0  0  0  0  0  0  0  0  0  0  0
   32.0628   -2.3293   -0.8855 C   0  0  0  0  0  0  0  0  0  0  0  0
   31.0997   -3.2627   -1.0777 C   0  0  0  0  0  0  0  0  0  0  0  0
   29.8565   -2.6567   -0.7029 C   0  0  0  0  0  0  0  0  0  0  0  0
   30.0566   -1.3458   -0.3404 N   0  0  0  0  0  0  0  0  0  0  0  0
   28.6450   -3.3321   -0.6538 C   0  0  0  0  0  0  0  0  0  0  0  0
   28.6242   -4.7792   -0.9678 C   0  0  0  0  0  0  0  0  0  0  0  0
   27.8688   -5.2579   -2.0409 C   0  0  0  0  0  0  0  0  0  0  0  0
   27.8480   -6.6081   -2.3407 C   0  0  0  0  0  0  0  0  0  0  0  0
   28.5807   -7.5099   -1.5632 C   0  0  0  0  0  0  0  0  0  0  0  0
   28.5587   -8.9007   -1.8666 C   0  0  0  0  0  0  0  0  0  0  0  0
   28.5405  -10.0248   -2.1118 N   0  0  0  0  0  0  0  0  0  0  0  0
   29.3347   -7.0362   -0.4854 C   0  0  0  0  0  0  0  0  0  0  0  0
   29.3566   -5.6837   -0.1957 C   0  0  0  0  0  0  0  0  0  0  0  0
   27.4472   -2.7093   -0.3164 C   0  0  0  0  0  0  0  0  0  0  0  0
   26.1929   -3.3939   -0.1885 C   0  0  0  0  0  0  0  0  0  0  0  0
   25.2533   -2.4483    0.0487 C   0  0  0  0  0  0  0  0  0  0  0  0
   25.9351   -1.1895    0.0726 C   0  0  0  0  0  0  0  0  0  0  0  0
   27.2817   -1.3669   -0.1120 N   0  0  0  0  0  0  0  0  0  0  0  0
   24.2111    0.0298    0.2142 H   0  0  0  0  0  0  0  0  0  0  0  0
   24.1986    2.6314    0.1904 H   0  0  0  0  0  0  0  0  0  0  0  0
   26.1036    4.5249    0.4359 H   0  0  0  0  0  0  0  0  0  0  0  0
   27.4980    4.7041    2.6995 H   0  0  0  0  0  0  0  0  0  0  0  0
   27.5135    7.1322    3.1447 H   0  0  0  0  0  0  0  0  0  0  0  0
   29.9667    7.7465   -0.3229 H   0  0  0  0  0  0  0  0  0  0  0  0
   29.9406    5.3181   -0.7672 H   0  0  0  0  0  0  0  0  0  0  0  0
   31.3078    4.3227    1.3305 H   0  0  0  0  0  0  0  0  0  0  0  0
   33.1838    2.4239    0.9545 H   0  0  0  0  0  0  0  0  0  0  0  0
   33.1252   -2.4141   -1.0479 H   0  0  0  0  0  0  0  0  0  0  0  0
   31.2111   -4.2708   -1.4422 H   0  0  0  0  0  0  0  0  0  0  0  0
   27.3079   -4.5600   -2.6522 H   0  0  0  0  0  0  0  0  0  0  0  0
   27.2651   -6.9715   -3.1789 H   0  0  0  0  0  0  0  0  0  0  0  0
   29.9003   -7.7331    0.1219 H   0  0  0  0  0  0  0  0  0  0  0  0
   29.9328   -5.3213    0.6481 H   0  0  0  0  0  0  0  0  0  0  0  0
   26.0620   -4.4610   -0.2661 H   0  0  0  0  0  0  0  0  0  0  0  0
   24.1919   -2.5721    0.1937 H   0  0  0  0  0  0  0  0  0  0  0  0
   65.7933   -0.0029    0.0404 Fe  0  0  0  0  0  0  0  0  0  0  0  0
   69.1815   -0.0020    0.1792 C   0  0  0  0  0  0  0  0  0  0  0  0
   68.5303   -1.2127    0.2949 C   0  0  0  0  0  0  0  0  0  0  0  0
   69.2056   -2.4689    0.4211 C   0  0  0  0  0  0  0  0  0  0  0  0
   68.2471   -3.4085    0.5977 C   0  0  0  0  0  0  0  0  0  0  0  0
   66.9875   -2.7217    0.5949 C   0  0  0  0  0  0  0  0  0  0  0  0
   67.1729   -1.3841    0.3716 N   0  0  0  0  0  0  0  0  0  0  0  0
   65.7652   -3.3365    0.8427 C   0  0  0  0  0  0  0  0  0  0  0  0
   65.7530   -4.7811    1.1711 C   0  0  0  0  0  0  0  0  0  0  0  0
   66.4094   -5.2538    2.3098 C   0  0  0  0  0  0  0  0  0  0  0  0
   66.3981   -6.6018    2.6204 C   0  0  0  0  0  0  0  0  0  0  0  0
   65.7319   -7.5069    1.7888 C   0  0  0  0  0  0  0  0  0  0  0  0
   65.7220   -8.8953    2.1036 C   0  0  0  0  0  0  0  0  0  0  0  0
   65.7154  -10.0177    2.3574 N   0  0  0  0  0  0  0  0  0  0  0  0
   65.0758   -7.0389    0.6465 C   0  0  0  0  0  0  0  0  0  0  0  0
   65.0853   -5.6887    0.3458 C   0  0  0  0  0  0  0  0  0  0  0  0
   64.5566   -2.6551    0.8017 C   0  0  0  0  0  0  0  0  0  0  0  0
   63.2918   -3.2512    1.1145 C   0  0  0  0  0  0  0  0  0  0  0  0
   62.3476   -2.3071    0.8861 C   0  0  0  0  0  0  0  0  0  0  0  0
   64.3863   -1.3430    0.4294 N   0  0  0  0  0  0  0  0  0  0  0  0
   63.0378   -1.1367    0.4423 C   0  0  0  0  0  0  0  0  0  0  0  0
   62.3821    0.0255    0.0216 C   0  0  0  0  0  0  0  0  0  0  0  0
   63.0636    1.1735   -0.3986 C   0  0  0  0  0  0  0  0  0  0  0  0
   62.4019    2.3386   -0.8960 C   0  0  0  0  0  0  0  0  0  0  0  0
   63.3655    3.2606   -1.1337 C   0  0  0  0  0  0  0  0  0  0  0  0
   64.6126    2.6593   -0.7649 C   0  0  0  0  0  0  0  0  0  0  0  0
   64.4130    1.3644   -0.3488 N   0  0  0  0  0  0  0  0  0  0  0  0
   65.8300    3.3255   -0.7810 C   0  0  0  0  0  0  0  0  0  0  0  0
   65.8528    4.7541   -1.1725 C   0  0  0  0  0  0  0  0  0  0  0  0
   66.5679    5.1638   -2.3003 C   0  0  0  0  0  0  0  0  0  0  0  0
   66.5882    6.4949   -2.6761 C   0  0  0  0  0  0  0  0  0  0  0  0
   65.8956    7.4465   -1.9216 C   0  0  0  0  0  0  0  0  0  0  0  0
   65.9161    8.8176   -2.3042 C   0  0  0  0  0  0  0  0  0  0  0  0
   65.9329    9.9254   -2.6157 N   0  0  0  0  0  0  0  0  0  0  0  0
   65.1828    7.0420   -0.7890 C   0  0  0  0  0  0  0  0  0  0  0  0
   65.1610    5.7081   -0.4230 C   0  0  0  0  0  0  0  0  0  0  0  0
   67.0318    2.7109   -0.4464 C   0  0  0  0  0  0  0  0  0  0  0  0
   68.2925    3.3932   -0.3897 C   0  0  0  0  0  0  0  0  0  0  0  0
   69.2313    2.4584   -0.1119 C   0  0  0  0  0  0  0  0  0  0  0  0
   68.5431    1.2083    0.0060 C   0  0  0  0  0  0  0  0  0  0  0  0
   67.1936    1.3824   -0.1603 N   0  0  0  0  0  0  0  0  0  0  0  0
   70.2649   -0.0032    0.2163 H   0  0  0  0  0  0  0  0  0  0  0  0
   70.2754   -2.5956    0.3744 H   0  0  0  0  0  0  0  0  0  0  0  0
   68.3691   -4.4729    0.7164 H   0  0  0  0  0  0  0  0  0  0  0  0
   66.9176   -4.5533    2.9627 H   0  0  0  0  0  0  0  0  0  0  0  0
   66.9042   -6.9608    3.5088 H   0  0  0  0  0  0  0  0  0  0  0  0
   64.5611   -7.7382   -0.0019 H   0  0  0  0  0  0  0  0  0  0  0  0
   64.5847   -5.3302   -0.5465 H   0  0  0  0  0  0  0  0  0  0  0  0
   63.1545   -4.2600    1.4683 H   0  0  0  0  0  0  0  0  0  0  0  0
   61.2783   -2.3818    1.0013 H   0  0  0  0  0  0  0  0  0  0  0  0
   61.3373    2.4234   -1.0433 H   0  0  0  0  0  0  0  0  0  0  0  0
   63.2522    4.2574   -1.5275 H   0  0  0  0  0  0  0  0  0  0  0  0
   67.0972    4.4266   -2.8933 H   0  0  0  0  0  0  0  0  0  0  0  0
   67.1392    6.8045   -3.5564 H   0  0  0  0  0  0  0  0  0  0  0  0
   64.6486    7.7779   -0.1995 H   0  0  0  0  0  0  0  0  0  0  0  0
   64.6163    5.3996    0.4621 H   0  0  0  0  0  0  0  0  0  0  0  0
   68.4275    4.4522   -0.5386 H   0  0  0  0  0  0  0  0  0  0  0  0
   70.2963    2.5834    0.0024 H   0  0  0  0  0  0  0  0  0  0  0  0
   33.4870   -0.0078   -0.0210 C   0  0  0  0  0  0  0  0  0  0  0  0
   34.7137   -0.0124   -0.0304 C   0  0  0  0  0  0  0  0  0  0  0  0
   36.0526   -0.0168   -0.0382 C   0  0  0  0  0  0  0  0  0  0  0  0
   37.2858   -0.0174   -0.0470 C   0  0  0  0  0  0  0  0  0  0  0  0
   38.6198   -0.0148   -0.0500 C   0  0  0  0  0  0  0  0  0  0  0  0
   39.8531   -0.0114   -0.0518 C   0  0  0  0  0  0  0  0  0  0  0  0
   41.1917   -0.0086   -0.0511 C   0  0  0  0  0  0  0  0  0  0  0  0
   42.4188   -0.0038   -0.0516 C   0  0  0  0  0  0  0  0  0  0  0  0
   52.0475    0.0545   -0.0346 C   0  0  0  0  0  0  0  0  0  0  0  0
   53.2737    0.0609   -0.0369 C   0  0  0  0  0  0  0  0  0  0  0  0
   54.6138    0.0651   -0.0359 C   0  0  0  0  0  0  0  0  0  0  0  0
   55.8462    0.0671   -0.0310 C   0  0  0  0  0  0  0  0  0  0  0  0
   57.1817    0.0641   -0.0233 C   0  0  0  0  0  0  0  0  0  0  0  0
   58.4139    0.0574   -0.0140 C   0  0  0  0  0  0  0  0  0  0  0  0
   59.7544    0.0478   -0.0024 C   0  0  0  0  0  0  0  0  0  0  0  0
   60.9801    0.0366    0.0085 C   0  0  0  0  0  0  0  0  0  0  0  0
   47.2325    0.0236   -0.0411 Fe  0  0  0  0  0  0  0  0  0  0  0  0
   43.8176    0.0035   -0.0489 C   0  0  0  0  0  0  0  0  0  0  0  0
   44.4973   -1.1912   -0.3223 C   0  0  0  0  0  0  0  0  0  0  0  0
   43.8345   -2.4330   -0.5684 C   0  0  0  0  0  0  0  0  0  0  0  0
   44.7957   -3.3224   -0.9178 C   0  0  0  0  0  0  0  0  0  0  0  0
   46.0406   -2.6146   -0.8927 C   0  0  0  0  0  0  0  0  0  0  0  0
   45.8447   -1.3190   -0.4808 N   0  0  0  0  0  0  0  0  0  0  0  0
   47.2534   -3.1574   -1.2980 C   0  0  0  0  0  0  0  0  0  0  0  0
   47.2636   -4.5331   -1.8465 C   0  0  0  0  0  0  0  0  0  0  0  0
   46.5429   -4.8385   -3.0033 C   0  0  0  0  0  0  0  0  0  0  0  0
   46.5565   -6.1203   -3.5231 C   0  0  0  0  0  0  0  0  0  0  0  0
   47.2886   -7.1269   -2.8866 C   0  0  0  0  0  0  0  0  0  0  0  0
   47.3031   -8.4475   -3.4183 C   0  0  0  0  0  0  0  0  0  0  0  0
   47.3144   -9.5155   -3.8466 N   0  0  0  0  0  0  0  0  0  0  0  0
   48.0072   -6.8272   -1.7254 C   0  0  0  0  0  0  0  0  0  0  0  0
   47.9959   -5.5413   -1.2155 C   0  0  0  0  0  0  0  0  0  0  0  0
   48.4586   -2.4700   -1.2149 C   0  0  0  0  0  0  0  0  0  0  0  0
   49.7115   -2.9888   -1.6758 C   0  0  0  0  0  0  0  0  0  0  0  0
   50.6611   -2.0910   -1.3162 C   0  0  0  0  0  0  0  0  0  0  0  0
   48.6375   -1.2427   -0.6260 N   0  0  0  0  0  0  0  0  0  0  0  0
   49.9832   -1.0250   -0.6485 C   0  0  0  0  0  0  0  0  0  0  0  0
   50.6470    0.0445   -0.0343 C   0  0  0  0  0  0  0  0  0  0  0  0
   49.9679    1.1040    0.5808 C   0  0  0  0  0  0  0  0  0  0  0  0
   50.6302    2.1765    1.2534 C   0  0  0  0  0  0  0  0  0  0  0  0
   49.6682    3.0610    1.6132 C   0  0  0  0  0  0  0  0  0  0  0  0
   48.4235    2.5281    1.1461 C   0  0  0  0  0  0  0  0  0  0  0  0
   48.6195    1.3040    0.5559 N   0  0  0  0  0  0  0  0  0  0  0  0
   47.2104    3.2023    1.2218 C   0  0  0  0  0  0  0  0  0  0  0  0
   47.2018    4.5793    1.7666 C   0  0  0  0  0  0  0  0  0  0  0  0
   46.4656    4.8822    2.9143 C   0  0  0  0  0  0  0  0  0  0  0  0
   46.4591    6.1667    3.4277 C   0  0  0  0  0  0  0  0  0  0  0  0
   47.1866    7.1784    2.7938 C   0  0  0  0  0  0  0  0  0  0  0  0
   47.1798    8.5023    3.3174 C   0  0  0  0  0  0  0  0  0  0  0  0
   47.1714    9.5724    3.7400 N   0  0  0  0  0  0  0  0  0  0  0  0
   47.9216    6.8809    1.6424 C   0  0  0  0  0  0  0  0  0  0  0  0
   47.9301    5.5925    1.1389 C   0  0  0  0  0  0  0  0  0  0  0  0
   46.0064    2.6464    0.8078 C   0  0  0  0  0  0  0  0  0  0  0  0
   44.7539    3.3411    0.8224 C   0  0  0  0  0  0  0  0  0  0  0  0
   43.8048    2.4409    0.4676 C   0  0  0  0  0  0  0  0  0  0  0  0
   44.4825    1.2060    0.2278 C   0  0  0  0  0  0  0  0  0  0  0  0
   45.8272    1.3482    0.3963 N   0  0  0  0  0  0  0  0  0  0  0  0
   42.7712   -2.5887   -0.4833 H   0  0  0  0  0  0  0  0  0  0  0  0
   44.6816   -4.3647   -1.1672 H   0  0  0  0  0  0  0  0  0  0  0  0
   45.9833   -4.0575   -3.5054 H   0  0  0  0  0  0  0  0  0  0  0  0
   46.0013   -6.3485   -4.4254 H   0  0  0  0  0  0  0  0  0  0  0  0
   48.5725   -7.6061   -1.2272 H   0  0  0  0  0  0  0  0  0  0  0  0
   48.5459   -5.3143   -0.3093 H   0  0  0  0  0  0  0  0  0  0  0  0
   49.8387   -3.9172   -2.2081 H   0  0  0  0  0  0  0  0  0  0  0  0
   51.7256   -2.1339   -1.4805 H   0  0  0  0  0  0  0  0  0  0  0  0
   51.6936    2.2323    1.4212 H   0  0  0  0  0  0  0  0  0  0  0  0
   49.7818    3.9890    2.1492 H   0  0  0  0  0  0  0  0  0  0  0  0
   45.9094    4.0974    3.4144 H   0  0  0  0  0  0  0  0  0  0  0  0
   45.8914    6.3932    4.3226 H   0  0  0  0  0  0  0  0  0  0  0  0
   48.4836    7.6636    1.1465 H   0  0  0  0  0  0  0  0  0  0  0  0
   48.4923    5.3673    0.2398 H   0  0  0  0  0  0  0  0  0  0  0  0
   44.6269    4.3825    1.0688 H   0  0  0  0  0  0  0  0  0  0  0  0
   42.7406    2.5854    0.3742 H   0  0  0  0  0  0  0  0  0  0  0  0
  2  3  4  0  0  0  0
  3  4  4  0  0  0  0
  4  5  2  0  0  0  0
  5  6  4  0  0  0  0
  1  7  1  0  0  0  0
  3  7  4  0  0  0  0
  6  7  4  0  0  0  0
  6  8  4  0  0  0  0
  8  9  1  0  0  0  0
  9 10  4  0  0  0  0
 10 11  4  0  0  0  0
 11 12  4  0  0  0  0
 12 13  1  0  0  0  0
 13 14  3  0  0  0  0
 12 15  4  0  0  0  0
  9 16  4  0  0  0  0
 15 16  4  0  0  0  0
  8 17  4  0  0  0  0
 17 18  4  0  0  0  0
 18 19  2  0  0  0  0
  1 20  1  0  0  0  0
 17 20  4  0  0  0  0
 19 21  4  0  0  0  0
 20 21  4  0  0  0  0
 21 22  4  0  0  0  0
 22 23  4  0  0  0  0
 23 24  4  0  0  0  0
 24 25  2  0  0  0  0
 25 26  4  0  0  0  0
  1 27  1  0  0  0  0
 23 27  4  0  0  0  0
 26 27  4  0  0  0  0
 26 28  4  0  0  0  0
 28 29  1  0  0  0  0
 29 30  4  0  0  0  0
 30 31  4  0  0  0  0
 31 32  4  0  0  0  0
 32 33  1  0  0  0  0
 33 34  3  0  0  0  0
 32 35  4  0  0  0  0
 29 36  4  0  0  0  0
 35 36  4  0  0  0  0
 28 37  4  0  0  0  0
 37 38  4  0  0  0  0
 38 39  2  0  0  0  0
  2 40  4  0  0  0  0
 39 40  4  0  0  0  0
  1 41  1  0  0  0  0
 37 41  4  0  0  0  0
 40 41  4  0  0  0  0
  2 42  1  0  0  0  0
  4 43  1  0  0  0  0
  5 44  1  0  0  0  0
 10 45  1  0  0  0  0
 11 46  1  0  0  0  0
 15 47  1  0  0  0  0
 16 48  1  0  0  0  0
 18 49  1  0  0  0  0
 19 50  1  0  0  0  0
 24 51  1  0  0  0  0
 25 52  1  0  0  0  0
 30 53  1  0  0  0  0
 31 54  1  0  0  0  0
 35 55  1  0  0  0  0
 36 56  1  0  0  0  0
 38 57  1  0  0  0  0
 39 58  1  0  0  0  0
 60 61  4  0  0  0  0
 61 62  4  0  0  0  0
 62 63  2  0  0  0  0
 63 64  4  0  0  0  0
 59 65  1  0  0  0  0
 61 65  4  0  0  0  0
 64 65  4  0  0  0  0
 64 66  4  0  0  0  0
 66 67  1  0  0  0  0
 67 68  4  0  0  0  0
 68 69  4  0  0  0  0
 69 70  4  0  0  0  0
 70 71  1  0  0  0  0
 71 72  3  0  0  0  0
 70 73  4  0  0  0  0
 67 74  4  0  0  0  0
 73 74  4  0  0  0  0
 66 75  4  0  0  0  0
 75 76  4  0  0  0  0
 76 77  2  0  0  0  0
 59 78  1  0  0  0  0
 75 78  4  0  0  0  0
 77 79  4  0  0  0  0
 78 79  4  0  0  0  0
 79 80  4  0  0  0  0
 80 81  4  0  0  0  0
 81 82  4  0  0  0  0
 82 83  2  0  0  0  0
 83 84  4  0  0  0  0
 59 85  1  0  0  0  0
 81 85  4  0  0  0  0
 84 85  4  0  0  0  0
 84 86  4  0  0  0  0
 86 87  1  0  0  0  0
 87 88  4  0  0  0  0
 88 89  4  0  0  0  0
 89 90  4  0  0  0  0
 90 91  1  0  0  0  0
 91 92  3  0  0  0  0
 90 93  4  0  0  0  0
 87 94  4  0  0  0  0
 93 94  4  0  0  0  0
 86 95  4  0  0  0  0
 95 96  4  0  0  0  0
 96 97  2  0  0  0  0
 60 98  4  0  0  0  0
 97 98  4  0  0  0  0
 59 99  1  0  0  0  0
 95 99  4  0  0  0  0
 98 99  4  0  0  0  0
 60100  1  0  0  0  0
 62101  1  0  0  0  0
 63102  1  0  0  0  0
 68103  1  0  0  0  0
 69104  1  0  0  0  0
 73105  1  0  0  0  0
 74106  1  0  0  0  0
 76107  1  0  0  0  0
 77108  1  0  0  0  0
 82109  1  0  0  0  0
 83110  1  0  0  0  0
 88111  1  0  0  0  0
 89112  1  0  0  0  0
 93113  1  0  0  0  0
 94114  1  0  0  0  0
 96115  1  0  0  0  0
 97116  1  0  0  0  0
 22117  4  0  0  0  0
117118  3  0  0  0  0
118119  4  0  0  0  0
119120  3  0  0  0  0
120121  4  0  0  0  0
121122  3  0  0  0  0
122123  4  0  0  0  0
123124  3  0  0  0  0
125126  3  0  0  0  0
126127  4  0  0  0  0
127128  3  0  0  0  0
128129  4  0  0  0  0
129130  3  0  0  0  0
130131  4  0  0  0  0
 80132  4  0  0  0  0
131132  3  0  0  0  0
124134  4  0  0  0  0
134135  4  0  0  0  0
135136  4  0  0  0  0
136137  2  0  0  0  0
137138  4  0  0  0  0
133139  1  0  0  0  0
135139  4  0  0  0  0
138139  4  0  0  0  0
138140  4  0  0  0  0
140141  1  0  0  0  0
141142  4  0  0  0  0
142143  4  0  0  0  0
143144  4  0  0  0  0
144145  1  0  0  0  0
145146  3  0  0  0  0
144147  4  0  0  0  0
141148  4  0  0  0  0
147148  4  0  0  0  0
140149  4  0  0  0  0
149150  4  0  0  0  0
150151  2  0  0  0  0
133152  1  0  0  0  0
149152  4  0  0  0  0
151153  4  0  0  0  0
152153  4  0  0  0  0
125154  4  0  0  0  0
153154  4  0  0  0  0
154155  4  0  0  0  0
155156  4  0  0  0  0
156157  2  0  0  0  0
157158  4  0  0  0  0
133159  1  0  0  0  0
155159  4  0  0  0  0
158159  4  0  0  0  0
158160  4  0  0  0  0
160161  1  0  0  0  0
161162  4  0  0  0  0
162163  4  0  0  0  0
163164  4  0  0  0  0
164165  1  0  0  0  0
165166  3  0  0  0  0
164167  4  0  0  0  0
161168  4  0  0  0  0
167168  4  0  0  0  0
160169  4  0  0  0  0
169170  4  0  0  0  0
170171  2  0  0  0  0
134172  4  0  0  0  0
171172  4  0  0  0  0
133173  1  0  0  0  0
169173  4  0  0  0  0
172173  4  0  0  0  0
136174  1  0  0  0  0
137175  1  0  0  0  0
142176  1  0  0  0  0
143177  1  0  0  0  0
147178  1  0  0  0  0
148179  1  0  0  0  0
150180  1  0  0  0  0
151181  1  0  0  0  0
156182  1  0  0  0  0
157183  1  0  0  0  0
162184  1  0  0  0  0
163185  1  0  0  0  0
167186  1  0  0  0  0
168187  1  0  0  0  0
170188  1  0  0  0  0
171189  1  0  0  0  0
M  END
