 xtb: 6.5.1 (b24c23e)
          07302208593D

122141  0     0  0            999 V2000
   17.1017    0.0639   -0.0241 Zn  0  0  0  0  0  0  0  0  0  0  0  0
   13.6885    0.1053   -0.0881 C   0  0  0  0  0  0  0  0  0  0  0  0
   14.3205    1.3336    0.0614 C   0  0  0  0  0  0  0  0  0  0  0  0
   13.6480    2.5924    0.2223 C   0  0  0  0  0  0  0  0  0  0  0  0
   14.6078    3.5389    0.3709 C   0  0  0  0  0  0  0  0  0  0  0  0
   15.8799    2.8697    0.2937 C   0  0  0  0  0  0  0  0  0  0  0  0
   15.6702    1.5351    0.1086 N   0  0  0  0  0  0  0  0  0  0  0  0
   17.1310    3.4808    0.4415 C   0  0  0  0  0  0  0  0  0  0  0  0
   17.1407    4.9500    0.6434 C   0  0  0  0  0  0  0  0  0  0  0  0
   17.6442    5.5031    1.8247 C   0  0  0  0  0  0  0  0  0  0  0  0
   17.6425    6.8720    2.0111 C   0  0  0  0  0  0  0  0  0  0  0  0
   17.1422    7.7212    1.0184 C   0  0  0  0  0  0  0  0  0  0  0  0
   17.1495    9.1781    1.2412 C   0  0  0  0  0  0  0  0  0  0  0  0
   17.5606    9.7002    2.2457 O   0  0  0  0  0  0  0  0  0  0  0  0
   16.6423    7.1704   -0.1642 C   0  0  0  0  0  0  0  0  0  0  0  0
   16.6393    5.7992   -0.3473 C   0  0  0  0  0  0  0  0  0  0  0  0
   18.3695    2.8288    0.4185 C   0  0  0  0  0  0  0  0  0  0  0  0
   19.6459    3.4739    0.5520 C   0  0  0  0  0  0  0  0  0  0  0  0
   20.5930    2.5083    0.4431 C   0  0  0  0  0  0  0  0  0  0  0  0
   18.5679    1.4884    0.2210 N   0  0  0  0  0  0  0  0  0  0  0  0
   19.9115    1.2670    0.2258 C   0  0  0  0  0  0  0  0  0  0  0  0
   20.5482    0.0258    0.0185 C   0  0  0  0  0  0  0  0  0  0  0  0
   19.8872   -1.2011   -0.1975 C   0  0  0  0  0  0  0  0  0  0  0  0
   20.5436   -2.4481   -0.4556 C   0  0  0  0  0  0  0  0  0  0  0  0
   19.5777   -3.3930   -0.5805 C   0  0  0  0  0  0  0  0  0  0  0  0
   18.3159   -2.7312   -0.4009 C   0  0  0  0  0  0  0  0  0  0  0  0
   18.5397   -1.3977   -0.1868 N   0  0  0  0  0  0  0  0  0  0  0  0
   17.0646   -3.3562   -0.4677 C   0  0  0  0  0  0  0  0  0  0  0  0
   17.0536   -4.8290   -0.6324 C   0  0  0  0  0  0  0  0  0  0  0  0
   16.4470   -5.4162   -1.7467 C   0  0  0  0  0  0  0  0  0  0  0  0
   16.4292   -6.7917   -1.8928 C   0  0  0  0  0  0  0  0  0  0  0  0
   17.0140   -7.6105   -0.9234 C   0  0  0  0  0  0  0  0  0  0  0  0
   16.9999   -9.0785   -1.0512 C   0  0  0  0  0  0  0  0  0  0  0  0
   17.4856   -9.8263   -0.2412 O   0  0  0  0  0  0  0  0  0  0  0  0
   17.6228   -7.0239    0.1913 C   0  0  0  0  0  0  0  0  0  0  0  0
   17.6451   -5.6502    0.3332 C   0  0  0  0  0  0  0  0  0  0  0  0
   15.8235   -2.7129   -0.3877 C   0  0  0  0  0  0  0  0  0  0  0  0
   14.5387   -3.3610   -0.4179 C   0  0  0  0  0  0  0  0  0  0  0  0
   13.5978   -2.3891   -0.3203 C   0  0  0  0  0  0  0  0  0  0  0  0
   14.2953   -1.1380   -0.2157 C   0  0  0  0  0  0  0  0  0  0  0  0
   15.6407   -1.3683   -0.2523 N   0  0  0  0  0  0  0  0  0  0  0  0
   12.6030    0.1169   -0.0920 H   0  0  0  0  0  0  0  0  0  0  0  0
   12.5771    2.7221    0.2281 H   0  0  0  0  0  0  0  0  0  0  0  0
   14.4705    4.5959    0.5332 H   0  0  0  0  0  0  0  0  0  0  0  0
   18.0198    4.8474    2.6021 H   0  0  0  0  0  0  0  0  0  0  0  0
   18.0252    7.3081    2.9276 H   0  0  0  0  0  0  0  0  0  0  0  0
   16.7369    9.7702    0.3963 H   0  0  0  0  0  0  0  0  0  0  0  0
   16.2555    7.8219   -0.9411 H   0  0  0  0  0  0  0  0  0  0  0  0
   16.2607    5.3754   -1.2708 H   0  0  0  0  0  0  0  0  0  0  0  0
   19.7988    4.5306    0.6998 H   0  0  0  0  0  0  0  0  0  0  0  0
   21.6620    2.6240    0.5054 H   0  0  0  0  0  0  0  0  0  0  0  0
   21.6089   -2.5789   -0.5444 H   0  0  0  0  0  0  0  0  0  0  0  0
   19.7068   -4.4416   -0.7947 H   0  0  0  0  0  0  0  0  0  0  0  0
   16.0035   -4.7836   -2.5075 H   0  0  0  0  0  0  0  0  0  0  0  0
   15.9601   -7.2381   -2.7637 H   0  0  0  0  0  0  0  0  0  0  0  0
   16.4945   -9.4513   -1.9677 H   0  0  0  0  0  0  0  0  0  0  0  0
   18.0722   -7.6671    0.9404 H   0  0  0  0  0  0  0  0  0  0  0  0
   18.1057   -5.1993    1.2051 H   0  0  0  0  0  0  0  0  0  0  0  0
   14.3804   -4.4251   -0.4908 H   0  0  0  0  0  0  0  0  0  0  0  0
   12.5247   -2.4988   -0.3102 H   0  0  0  0  0  0  0  0  0  0  0  0
   28.0361   -0.0598   -0.0329 Zn  0  0  0  0  0  0  0  0  0  0  0  0
   31.4493   -0.0917   -0.1023 C   0  0  0  0  0  0  0  0  0  0  0  0
   30.8173   -1.3287   -0.1292 C   0  0  0  0  0  0  0  0  0  0  0  0
   31.4898   -2.5976   -0.1492 C   0  0  0  0  0  0  0  0  0  0  0  0
   30.5300   -3.5556   -0.1368 C   0  0  0  0  0  0  0  0  0  0  0  0
   29.2578   -2.8823   -0.1179 C   0  0  0  0  0  0  0  0  0  0  0  0
   29.4675   -1.5349   -0.1111 N   0  0  0  0  0  0  0  0  0  0  0  0
   28.0068   -3.5082   -0.0587 C   0  0  0  0  0  0  0  0  0  0  0  0
   27.9971   -4.9912   -0.0681 C   0  0  0  0  0  0  0  0  0  0  0  0
   27.4936   -5.7069    1.0225 C   0  0  0  0  0  0  0  0  0  0  0  0
   27.4953   -7.0884    1.0120 C   0  0  0  0  0  0  0  0  0  0  0  0
   27.9955   -7.7875   -0.0915 C   0  0  0  0  0  0  0  0  0  0  0  0
   27.9884   -9.2613   -0.0784 C   0  0  0  0  0  0  0  0  0  0  0  0
   27.5773   -9.9212    0.8415 O   0  0  0  0  0  0  0  0  0  0  0  0
   28.4955   -7.0740   -1.1836 C   0  0  0  0  0  0  0  0  0  0  0  0
   28.4985   -5.6907   -1.1696 C   0  0  0  0  0  0  0  0  0  0  0  0
   26.7682   -2.8595    0.0114 C   0  0  0  0  0  0  0  0  0  0  0  0
   25.4919   -3.5170    0.0516 C   0  0  0  0  0  0  0  0  0  0  0  0
   24.5448   -2.5458    0.0813 C   0  0  0  0  0  0  0  0  0  0  0  0
   26.5699   -1.5047    0.0069 N   0  0  0  0  0  0  0  0  0  0  0  0
   25.2263   -1.2862    0.0431 C   0  0  0  0  0  0  0  0  0  0  0  0
   24.5896   -0.0282    0.0147 C   0  0  0  0  0  0  0  0  0  0  0  0
   25.2505    1.2170   -0.0244 C   0  0  0  0  0  0  0  0  0  0  0  0
   24.5942    2.4880   -0.1023 C   0  0  0  0  0  0  0  0  0  0  0  0
   25.5601    3.4411   -0.0914 C   0  0  0  0  0  0  0  0  0  0  0  0
   26.8219    2.7604   -0.0078 C   0  0  0  0  0  0  0  0  0  0  0  0
   26.5980    1.4101    0.0142 N   0  0  0  0  0  0  0  0  0  0  0  0
   28.0731    3.3886    0.0151 C   0  0  0  0  0  0  0  0  0  0  0  0
   28.0841    4.8699    0.0618 C   0  0  0  0  0  0  0  0  0  0  0  0
   28.6908    5.6097   -0.9575 C   0  0  0  0  0  0  0  0  0  0  0  0
   28.7085    6.9921   -0.9063 C   0  0  0  0  0  0  0  0  0  0  0  0
   28.1236    7.6644    0.1698 C   0  0  0  0  0  0  0  0  0  0  0  0
   28.1376    9.1357    0.2522 C   0  0  0  0  0  0  0  0  0  0  0  0
   27.6525    9.7605    1.1608 O   0  0  0  0  0  0  0  0  0  0  0  0
   27.5148    6.9251    1.1896 C   0  0  0  0  0  0  0  0  0  0  0  0
   27.4925    5.5451    1.1344 C   0  0  0  0  0  0  0  0  0  0  0  0
   29.3142    2.7404    0.0026 C   0  0  0  0  0  0  0  0  0  0  0  0
   30.5991    3.3863    0.0650 C   0  0  0  0  0  0  0  0  0  0  0  0
   31.5400    2.4104    0.0231 C   0  0  0  0  0  0  0  0  0  0  0  0
   30.8425    1.1572   -0.0515 C   0  0  0  0  0  0  0  0  0  0  0  0
   29.4971    1.3903   -0.0549 N   0  0  0  0  0  0  0  0  0  0  0  0
   32.5348   -0.1026   -0.1078 H   0  0  0  0  0  0  0  0  0  0  0  0
   32.5607   -2.7268   -0.1619 H   0  0  0  0  0  0  0  0  0  0  0  0
   30.6673   -4.6250   -0.1267 H   0  0  0  0  0  0  0  0  0  0  0  0
   27.1179   -5.1685    1.8853 H   0  0  0  0  0  0  0  0  0  0  0  0
   27.1124   -7.6506    1.8570 H   0  0  0  0  0  0  0  0  0  0  0  0
   28.4006   -9.7271   -0.9992 H   0  0  0  0  0  0  0  0  0  0  0  0
   28.8823   -7.6082   -2.0454 H   0  0  0  0  0  0  0  0  0  0  0  0
   28.8771   -5.1396   -2.0232 H   0  0  0  0  0  0  0  0  0  0  0  0
   25.3389   -4.5841    0.0475 H   0  0  0  0  0  0  0  0  0  0  0  0
   23.4758   -2.6692    0.1265 H   0  0  0  0  0  0  0  0  0  0  0  0
   23.5289    2.6301   -0.1717 H   0  0  0  0  0  0  0  0  0  0  0  0
   25.4309    4.5095   -0.1540 H   0  0  0  0  0  0  0  0  0  0  0  0
   29.1344    5.0920   -1.8006 H   0  0  0  0  0  0  0  0  0  0  0  0
   29.1776    7.5580   -1.7047 H   0  0  0  0  0  0  0  0  0  0  0  0
   28.6428    9.6352   -0.6018 H   0  0  0  0  0  0  0  0  0  0  0  0
   27.0653    7.4550    2.0226 H   0  0  0  0  0  0  0  0  0  0  0  0
   27.0319    4.9747    1.9332 H   0  0  0  0  0  0  0  0  0  0  0  0
   30.7574    4.4498    0.1445 H   0  0  0  0  0  0  0  0  0  0  0  0
   32.6131    2.5175    0.0487 H   0  0  0  0  0  0  0  0  0  0  0  0
   21.9599    0.0100    0.0192 C   0  0  0  0  0  0  0  0  0  0  0  0
   23.1779   -0.0131    0.0167 C   0  0  0  0  0  0  0  0  0  0  0  0
  2  3  4  0  0  0  0
  3  4  4  0  0  0  0
  4  5  2  0  0  0  0
  5  6  4  0  0  0  0
  1  7  1  0  0  0  0
  3  7  4  0  0  0  0
  6  7  4  0  0  0  0
  6  8  4  0  0  0  0
  8  9  1  0  0  0  0
  9 10  4  0  0  0  0
 10 11  4  0  0  0  0
 11 12  4  0  0  0  0
 12 13  1  0  0  0  0
 13 14  2  0  0  0  0
 12 15  4  0  0  0  0
  9 16  4  0  0  0  0
 15 16  4  0  0  0  0
  8 17  4  0  0  0  0
 17 18  4  0  0  0  0
 18 19  2  0  0  0  0
  1 20  1  0  0  0  0
 17 20  4  0  0  0  0
 19 21  4  0  0  0  0
 20 21  4  0  0  0  0
 21 22  4  0  0  0  0
 22 23  4  0  0  0  0
 23 24  4  0  0  0  0
 24 25  2  0  0  0  0
 25 26  4  0  0  0  0
  1 27  1  0  0  0  0
 23 27  4  0  0  0  0
 26 27  4  0  0  0  0
 26 28  4  0  0  0  0
 28 29  1  0  0  0  0
 29 30  4  0  0  0  0
 30 31  4  0  0  0  0
 31 32  4  0  0  0  0
 32 33  1  0  0  0  0
 33 34  2  0  0  0  0
 32 35  4  0  0  0  0
 29 36  4  0  0  0  0
 35 36  4  0  0  0  0
 28 37  4  0  0  0  0
 37 38  4  0  0  0  0
 38 39  2  0  0  0  0
  2 40  4  0  0  0  0
 39 40  4  0  0  0  0
  1 41  1  0  0  0  0
 37 41  4  0  0  0  0
 40 41  4  0  0  0  0
  2 42  1  0  0  0  0
  4 43  1  0  0  0  0
  5 44  1  0  0  0  0
 10 45  1  0  0  0  0
 11 46  1  0  0  0  0
 13 47  1  0  0  0  0
 15 48  1  0  0  0  0
 16 49  1  0  0  0  0
 18 50  1  0  0  0  0
 19 51  1  0  0  0  0
 24 52  1  0  0  0  0
 25 53  1  0  0  0  0
 30 54  1  0  0  0  0
 31 55  1  0  0  0  0
 33 56  1  0  0  0  0
 35 57  1  0  0  0  0
 36 58  1  0  0  0  0
 38 59  1  0  0  0  0
 39 60  1  0  0  0  0
 62 63  4  0  0  0  0
 63 64  4  0  0  0  0
 64 65  2  0  0  0  0
 65 66  4  0  0  0  0
 61 67  1  0  0  0  0
 63 67  4  0  0  0  0
 66 67  4  0  0  0  0
 66 68  4  0  0  0  0
 68 69  1  0  0  0  0
 69 70  4  0  0  0  0
 70 71  4  0  0  0  0
 71 72  4  0  0  0  0
 72 73  1  0  0  0  0
 73 74  2  0  0  0  0
 72 75  4  0  0  0  0
 69 76  4  0  0  0  0
 75 76  4  0  0  0  0
 68 77  4  0  0  0  0
 77 78  4  0  0  0  0
 78 79  2  0  0  0  0
 61 80  1  0  0  0  0
 77 80  4  0  0  0  0
 79 81  4  0  0  0  0
 80 81  4  0  0  0  0
 81 82  4  0  0  0  0
 82 83  4  0  0  0  0
 83 84  4  0  0  0  0
 84 85  2  0  0  0  0
 85 86  4  0  0  0  0
 61 87  1  0  0  0  0
 83 87  4  0  0  0  0
 86 87  4  0  0  0  0
 86 88  4  0  0  0  0
 88 89  1  0  0  0  0
 89 90  4  0  0  0  0
 90 91  4  0  0  0  0
 91 92  4  0  0  0  0
 92 93  1  0  0  0  0
 93 94  2  0  0  0  0
 92 95  4  0  0  0  0
 89 96  4  0  0  0  0
 95 96  4  0  0  0  0
 88 97  4  0  0  0  0
 97 98  4  0  0  0  0
 98 99  2  0  0  0  0
 62100  4  0  0  0  0
 99100  4  0  0  0  0
 61101  1  0  0  0  0
 97101  4  0  0  0  0
100101  4  0  0  0  0
 62102  1  0  0  0  0
 64103  1  0  0  0  0
 65104  1  0  0  0  0
 70105  1  0  0  0  0
 71106  1  0  0  0  0
 73107  1  0  0  0  0
 75108  1  0  0  0  0
 76109  1  0  0  0  0
 78110  1  0  0  0  0
 79111  1  0  0  0  0
 84112  1  0  0  0  0
 85113  1  0  0  0  0
 90114  1  0  0  0  0
 91115  1  0  0  0  0
 93116  1  0  0  0  0
 95117  1  0  0  0  0
 96118  1  0  0  0  0
 98119  1  0  0  0  0
 99120  1  0  0  0  0
 22121  4  0  0  0  0
 82122  4  0  0  0  0
121122  3  0  0  0  0
M  END
