 xtb: 6.5.1 (b24c23e)
          07292216353D

191220  0     0  0            999 V2000
   29.4908    0.0093    0.0062 Fe  0  0  0  0  0  0  0  0  0  0  0  0
   26.0991    0.0492   -0.0304 C   0  0  0  0  0  0  0  0  0  0  0  0
   26.7559    1.2609    0.0232 C   0  0  0  0  0  0  0  0  0  0  0  0
   26.0812    2.5229    0.0743 C   0  0  0  0  0  0  0  0  0  0  0  0
   27.0401    3.4701    0.1968 C   0  0  0  0  0  0  0  0  0  0  0  0
   28.3004    2.7847    0.2130 C   0  0  0  0  0  0  0  0  0  0  0  0
   28.1133    1.4343    0.0956 N   0  0  0  0  0  0  0  0  0  0  0  0
   29.5229    3.4173    0.4121 C   0  0  0  0  0  0  0  0  0  0  0  0
   29.5367    4.8898    0.5801 C   0  0  0  0  0  0  0  0  0  0  0  0
   29.9324    5.4611    1.7928 C   0  0  0  0  0  0  0  0  0  0  0  0
   29.9471    6.8345    1.9434 C   0  0  0  0  0  0  0  0  0  0  0  0
   29.5720    7.6667    0.8837 C   0  0  0  0  0  0  0  0  0  0  0  0
   29.6026    9.1296    1.0675 C   0  0  0  0  0  0  0  0  0  0  0  0
   29.9378    9.6683    2.0910 O   0  0  0  0  0  0  0  0  0  0  0  0
   29.1770    7.0960   -0.3285 C   0  0  0  0  0  0  0  0  0  0  0  0
   29.1570    5.7205   -0.4771 C   0  0  0  0  0  0  0  0  0  0  0  0
   30.7302    2.7356    0.4570 C   0  0  0  0  0  0  0  0  0  0  0  0
   32.0003    3.3755    0.6337 C   0  0  0  0  0  0  0  0  0  0  0  0
   32.9427    2.4090    0.5267 C   0  0  0  0  0  0  0  0  0  0  0  0
   30.8996    1.3868    0.2509 N   0  0  0  0  0  0  0  0  0  0  0  0
   32.2471    1.1851    0.2778 C   0  0  0  0  0  0  0  0  0  0  0  0
   32.9032   -0.0290    0.0396 C   0  0  0  0  0  0  0  0  0  0  0  0
   32.2240   -1.2292   -0.2031 C   0  0  0  0  0  0  0  0  0  0  0  0
   32.8944   -2.4628   -0.4721 C   0  0  0  0  0  0  0  0  0  0  0  0
   31.9325   -3.4088   -0.5906 C   0  0  0  0  0  0  0  0  0  0  0  0
   30.6771   -2.7490   -0.3851 C   0  0  0  0  0  0  0  0  0  0  0  0
   30.8726   -1.4042   -0.1774 N   0  0  0  0  0  0  0  0  0  0  0  0
   29.4525   -3.4011   -0.3871 C   0  0  0  0  0  0  0  0  0  0  0  0
   29.4368   -4.8725   -0.5570 C   0  0  0  0  0  0  0  0  0  0  0  0
   28.8162   -5.4480   -1.6689 C   0  0  0  0  0  0  0  0  0  0  0  0
   28.8080   -6.8219   -1.8329 C   0  0  0  0  0  0  0  0  0  0  0  0
   29.4141   -7.6475   -0.8831 C   0  0  0  0  0  0  0  0  0  0  0  0
   29.4174   -9.1145   -1.0334 C   0  0  0  0  0  0  0  0  0  0  0  0
   29.9216   -9.8670   -0.2397 O   0  0  0  0  0  0  0  0  0  0  0  0
   30.0307   -7.0715    0.2325 C   0  0  0  0  0  0  0  0  0  0  0  0
   30.0452   -5.6992    0.3920 C   0  0  0  0  0  0  0  0  0  0  0  0
   28.2399   -2.7362   -0.2384 C   0  0  0  0  0  0  0  0  0  0  0  0
   26.9663   -3.3953   -0.1964 C   0  0  0  0  0  0  0  0  0  0  0  0
   26.0273   -2.4252   -0.1000 C   0  0  0  0  0  0  0  0  0  0  0  0
   26.7287   -1.1772   -0.0718 C   0  0  0  0  0  0  0  0  0  0  0  0
   28.0825   -1.3813   -0.1310 N   0  0  0  0  0  0  0  0  0  0  0  0
   25.0150    0.0615   -0.0356 H   0  0  0  0  0  0  0  0  0  0  0  0
   25.0108    2.6462    0.0318 H   0  0  0  0  0  0  0  0  0  0  0  0
   26.9173    4.5374    0.2844 H   0  0  0  0  0  0  0  0  0  0  0  0
   30.2141    4.8177    2.6185 H   0  0  0  0  0  0  0  0  0  0  0  0
   30.2487    7.2869    2.8820 H   0  0  0  0  0  0  0  0  0  0  0  0
   29.2870    9.7080    0.1730 H   0  0  0  0  0  0  0  0  0  0  0  0
   28.8870    7.7346   -1.1565 H   0  0  0  0  0  0  0  0  0  0  0  0
   28.8610    5.2795   -1.4223 H   0  0  0  0  0  0  0  0  0  0  0  0
   32.1434    4.4301    0.8032 H   0  0  0  0  0  0  0  0  0  0  0  0
   34.0143    2.5023    0.5974 H   0  0  0  0  0  0  0  0  0  0  0  0
   33.9632   -2.5743   -0.5580 H   0  0  0  0  0  0  0  0  0  0  0  0
   32.0516   -4.4582   -0.8051 H   0  0  0  0  0  0  0  0  0  0  0  0
   28.3548   -4.8086   -2.4129 H   0  0  0  0  0  0  0  0  0  0  0  0
   28.3305   -7.2607   -2.7030 H   0  0  0  0  0  0  0  0  0  0  0  0
   28.9126   -9.4798   -1.9531 H   0  0  0  0  0  0  0  0  0  0  0  0
   30.4953   -7.7209    0.9667 H   0  0  0  0  0  0  0  0  0  0  0  0
   30.5154   -5.2553    1.2621 H   0  0  0  0  0  0  0  0  0  0  0  0
   26.8231   -4.4630   -0.2305 H   0  0  0  0  0  0  0  0  0  0  0  0
   24.9549   -2.5253   -0.0485 H   0  0  0  0  0  0  0  0  0  0  0  0
   61.4703   -0.0353   -0.0299 Fe  0  0  0  0  0  0  0  0  0  0  0  0
   64.8640   -0.0704   -0.0580 C   0  0  0  0  0  0  0  0  0  0  0  0
   64.2083   -1.2809   -0.1391 C   0  0  0  0  0  0  0  0  0  0  0  0
   64.8860   -2.5400   -0.2141 C   0  0  0  0  0  0  0  0  0  0  0  0
   63.9275   -3.4951   -0.2339 C   0  0  0  0  0  0  0  0  0  0  0  0
   62.6647   -2.8162   -0.1817 C   0  0  0  0  0  0  0  0  0  0  0  0
   62.8500   -1.4616   -0.1228 N   0  0  0  0  0  0  0  0  0  0  0  0
   61.4375   -3.4687   -0.1409 C   0  0  0  0  0  0  0  0  0  0  0  0
   61.4233   -4.9500   -0.1861 C   0  0  0  0  0  0  0  0  0  0  0  0
   60.9553   -5.6863    0.9059 C   0  0  0  0  0  0  0  0  0  0  0  0
   60.9429   -7.0672    0.8612 C   0  0  0  0  0  0  0  0  0  0  0  0
   61.3926   -7.7423   -0.2784 C   0  0  0  0  0  0  0  0  0  0  0  0
   61.3640   -9.2164   -0.3037 C   0  0  0  0  0  0  0  0  0  0  0  0
   60.9699   -9.8937    0.6106 O   0  0  0  0  0  0  0  0  0  0  0  0
   61.8587   -7.0068   -1.3706 C   0  0  0  0  0  0  0  0  0  0  0  0
   61.8764   -5.6241   -1.3231 C   0  0  0  0  0  0  0  0  0  0  0  0
   60.2253   -2.7988   -0.0630 C   0  0  0  0  0  0  0  0  0  0  0  0
   58.9523   -3.4570   -0.0629 C   0  0  0  0  0  0  0  0  0  0  0  0
   58.0104   -2.4847   -0.0351 C   0  0  0  0  0  0  0  0  0  0  0  0
   60.0584   -1.4343   -0.0402 N   0  0  0  0  0  0  0  0  0  0  0  0
   58.7096   -1.2377   -0.0250 C   0  0  0  0  0  0  0  0  0  0  0  0
   58.0558    0.0000   -0.0168 C   0  0  0  0  0  0  0  0  0  0  0  0
   58.7351    1.2238   -0.0069 C   0  0  0  0  0  0  0  0  0  0  0  0
   58.0628    2.4853   -0.0248 C   0  0  0  0  0  0  0  0  0  0  0  0
   59.0251    3.4375    0.0067 C   0  0  0  0  0  0  0  0  0  0  0  0
   60.2828    2.7522    0.0535 C   0  0  0  0  0  0  0  0  0  0  0  0
   60.0876    1.3917    0.0247 N   0  0  0  0  0  0  0  0  0  0  0  0
   61.5098    3.3975    0.1072 C   0  0  0  0  0  0  0  0  0  0  0  0
   61.5260    4.8778    0.1677 C   0  0  0  0  0  0  0  0  0  0  0  0
   62.0976    5.6204   -0.8688 C   0  0  0  0  0  0  0  0  0  0  0  0
   62.1060    7.0031   -0.8174 C   0  0  0  0  0  0  0  0  0  0  0  0
   61.5484    7.6699    0.2761 C   0  0  0  0  0  0  0  0  0  0  0  0
   61.5449    9.1425    0.3553 C   0  0  0  0  0  0  0  0  0  0  0  0
   61.0822    9.7613    1.2789 O   0  0  0  0  0  0  0  0  0  0  0  0
   60.9808    6.9262    1.3160 C   0  0  0  0  0  0  0  0  0  0  0  0
   60.9668    5.5458    1.2610 C   0  0  0  0  0  0  0  0  0  0  0  0
   62.7240    2.7197    0.1064 C   0  0  0  0  0  0  0  0  0  0  0  0
   64.0002    3.3686    0.1997 C   0  0  0  0  0  0  0  0  0  0  0  0
   64.9385    2.3947    0.1484 C   0  0  0  0  0  0  0  0  0  0  0  0
   64.2345    1.1530    0.0359 C   0  0  0  0  0  0  0  0  0  0  0  0
   62.8803    1.3626    0.0266 N   0  0  0  0  0  0  0  0  0  0  0  0
   65.9481   -0.0820   -0.0608 H   0  0  0  0  0  0  0  0  0  0  0  0
   65.9577   -2.6571   -0.2374 H   0  0  0  0  0  0  0  0  0  0  0  0
   64.0515   -4.5653   -0.2686 H   0  0  0  0  0  0  0  0  0  0  0  0
   60.6154   -5.1653    1.7938 H   0  0  0  0  0  0  0  0  0  0  0  0
   60.5860   -7.6470    1.7056 H   0  0  0  0  0  0  0  0  0  0  0  0
   61.7424   -9.6634   -1.2477 H   0  0  0  0  0  0  0  0  0  0  0  0
   62.2065   -7.5228   -2.2597 H   0  0  0  0  0  0  0  0  0  0  0  0
   62.2281   -5.0548   -2.1761 H   0  0  0  0  0  0  0  0  0  0  0  0
   58.8080   -4.5245   -0.0929 H   0  0  0  0  0  0  0  0  0  0  0  0
   56.9372   -2.5865   -0.0282 H   0  0  0  0  0  0  0  0  0  0  0  0
   56.9927    2.6097   -0.0628 H   0  0  0  0  0  0  0  0  0  0  0  0
   58.9044    4.5082   -0.0099 H   0  0  0  0  0  0  0  0  0  0  0  0
   62.5208    5.1054   -1.7238 H   0  0  0  0  0  0  0  0  0  0  0  0
   62.5457    7.5727   -1.6297 H   0  0  0  0  0  0  0  0  0  0  0  0
   62.0115    9.6471   -0.5174 H   0  0  0  0  0  0  0  0  0  0  0  0
   60.5535    7.4526    2.1626 H   0  0  0  0  0  0  0  0  0  0  0  0
   60.5350    4.9710    2.0725 H   0  0  0  0  0  0  0  0  0  0  0  0
   64.1457    4.4319    0.3001 H   0  0  0  0  0  0  0  0  0  0  0  0
   66.0122    2.4875    0.1879 H   0  0  0  0  0  0  0  0  0  0  0  0
   38.1005   -0.0576    0.0312 C   0  0  0  0  0  0  0  0  0  0  0  0
   36.8696   -0.0543    0.0367 C   0  0  0  0  0  0  0  0  0  0  0  0
   35.5293   -0.0490    0.0413 C   0  0  0  0  0  0  0  0  0  0  0  0
   34.3033   -0.0421    0.0401 C   0  0  0  0  0  0  0  0  0  0  0  0
   39.4405   -0.0568    0.0258 C   0  0  0  0  0  0  0  0  0  0  0  0
   40.6669   -0.0548    0.0203 C   0  0  0  0  0  0  0  0  0  0  0  0
   54.0882    0.0219   -0.0115 C   0  0  0  0  0  0  0  0  0  0  0  0
   52.8577    0.0205   -0.0105 C   0  0  0  0  0  0  0  0  0  0  0  0
   51.5171    0.0165   -0.0071 C   0  0  0  0  0  0  0  0  0  0  0  0
   50.2911    0.0106   -0.0042 C   0  0  0  0  0  0  0  0  0  0  0  0
   55.4292    0.0197   -0.0123 C   0  0  0  0  0  0  0  0  0  0  0  0
   56.6548    0.0126   -0.0180 C   0  0  0  0  0  0  0  0  0  0  0  0
   45.4786   -0.0247    0.0143 Fe  0  0  0  0  0  0  0  0  0  0  0  0
   42.0654   -0.0470    0.0173 C   0  0  0  0  0  0  0  0  0  0  0  0
   42.7299    1.1752    0.1897 C   0  0  0  0  0  0  0  0  0  0  0  0
   42.0516    2.4249    0.3309 C   0  0  0  0  0  0  0  0  0  0  0  0
   43.0006    3.3507    0.6134 C   0  0  0  0  0  0  0  0  0  0  0  0
   44.2531    2.6575    0.6520 C   0  0  0  0  0  0  0  0  0  0  0  0
   44.0747    1.3312    0.3440 N   0  0  0  0  0  0  0  0  0  0  0  0
   45.4578    3.2449    1.0193 C   0  0  0  0  0  0  0  0  0  0  0  0
   45.4477    4.6584    1.4596 C   0  0  0  0  0  0  0  0  0  0  0  0
   46.1704    5.6246    0.7534 C   0  0  0  0  0  0  0  0  0  0  0  0
   46.1572    6.9433    1.1652 C   0  0  0  0  0  0  0  0  0  0  0  0
   45.4282    7.3241    2.2966 C   0  0  0  0  0  0  0  0  0  0  0  0
   45.4351    8.7379    2.7182 C   0  0  0  0  0  0  0  0  0  0  0  0
   46.0363    9.6047    2.1380 O   0  0  0  0  0  0  0  0  0  0  0  0
   44.7085    6.3587    3.0045 C   0  0  0  0  0  0  0  0  0  0  0  0
   44.7152    5.0396    2.5870 C   0  0  0  0  0  0  0  0  0  0  0  0
   46.6716    2.5687    0.9918 C   0  0  0  0  0  0  0  0  0  0  0  0
   47.9175    3.1371    1.4112 C   0  0  0  0  0  0  0  0  0  0  0  0
   48.8786    2.2271    1.1190 C   0  0  0  0  0  0  0  0  0  0  0  0
   46.8664    1.3020    0.4986 N   0  0  0  0  0  0  0  0  0  0  0  0
   48.2143    1.1050    0.5348 C   0  0  0  0  0  0  0  0  0  0  0  0
   48.8919    0.0007    0.0007 C   0  0  0  0  0  0  0  0  0  0  0  0
   48.2265   -1.1142   -0.5265 C   0  0  0  0  0  0  0  0  0  0  0  0
   48.9028   -2.2283   -1.1119 C   0  0  0  0  0  0  0  0  0  0  0  0
   47.9530   -3.1539   -1.3925 C   0  0  0  0  0  0  0  0  0  0  0  0
   46.7022   -2.6026   -0.9654 C   0  0  0  0  0  0  0  0  0  0  0  0
   46.8820   -1.3314   -0.4784 N   0  0  0  0  0  0  0  0  0  0  0  0
   45.4984   -3.2971   -0.9815 C   0  0  0  0  0  0  0  0  0  0  0  0
   45.5079   -4.7136   -1.4122 C   0  0  0  0  0  0  0  0  0  0  0  0
   46.2490   -5.6615   -0.7014 C   0  0  0  0  0  0  0  0  0  0  0  0
   46.2571   -6.9863   -1.1000 C   0  0  0  0  0  0  0  0  0  0  0  0
   45.5299   -7.3873   -2.2231 C   0  0  0  0  0  0  0  0  0  0  0  0
   45.5246   -8.7928   -2.6716 C   0  0  0  0  0  0  0  0  0  0  0  0
   44.9158   -9.1845   -3.6336 O   0  0  0  0  0  0  0  0  0  0  0  0
   44.7915   -6.4378   -2.9370 C   0  0  0  0  0  0  0  0  0  0  0  0
   44.7771   -5.1164   -2.5340 C   0  0  0  0  0  0  0  0  0  0  0  0
   44.2870   -2.7250   -0.6128 C   0  0  0  0  0  0  0  0  0  0  0  0
   43.0437   -3.4345   -0.5688 C   0  0  0  0  0  0  0  0  0  0  0  0
   42.0830   -2.5197   -0.2902 C   0  0  0  0  0  0  0  0  0  0  0  0
   42.7451   -1.2607   -0.1550 C   0  0  0  0  0  0  0  0  0  0  0  0
   44.0915   -1.3996   -0.3106 N   0  0  0  0  0  0  0  0  0  0  0  0
   40.9873    2.5611    0.2274 H   0  0  0  0  0  0  0  0  0  0  0  0
   42.8733    4.4082    0.7776 H   0  0  0  0  0  0  0  0  0  0  0  0
   46.7276    5.3337   -0.1299 H   0  0  0  0  0  0  0  0  0  0  0  0
   46.7097    7.7008    0.6197 H   0  0  0  0  0  0  0  0  0  0  0  0
   44.8335    8.9452    3.6286 H   0  0  0  0  0  0  0  0  0  0  0  0
   44.1430    6.6452    3.8852 H   0  0  0  0  0  0  0  0  0  0  0  0
   44.1646    4.2899    3.1440 H   0  0  0  0  0  0  0  0  0  0  0  0
   48.0326    4.1049    1.8710 H   0  0  0  0  0  0  0  0  0  0  0  0
   49.9426    2.2963    1.2778 H   0  0  0  0  0  0  0  0  0  0  0  0
   49.9663   -2.2822   -1.2794 H   0  0  0  0  0  0  0  0  0  0  0  0
   48.0788   -4.1214   -1.8503 H   0  0  0  0  0  0  0  0  0  0  0  0
   46.8055   -5.3541    0.1768 H   0  0  0  0  0  0  0  0  0  0  0  0
   46.8297   -7.7174   -0.5386 H   0  0  0  0  0  0  0  0  0  0  0  0
   46.1366   -9.4743   -2.0432 H   0  0  0  0  0  0  0  0  0  0  0  0
   44.2331   -6.7580   -3.8100 H   0  0  0  0  0  0  0  0  0  0  0  0
   44.2128   -4.3802   -3.0951 H   0  0  0  0  0  0  0  0  0  0  0  0
   42.9302   -4.4943   -0.7280 H   0  0  0  0  0  0  0  0  0  0  0  0
   41.0205   -2.6689   -0.1851 H   0  0  0  0  0  0  0  0  0  0  0  0
  2  3  4  0  0  0  0
  3  4  4  0  0  0  0
  4  5  2  0  0  0  0
  5  6  4  0  0  0  0
  1  7  1  0  0  0  0
  3  7  4  0  0  0  0
  6  7  4  0  0  0  0
  6  8  4  0  0  0  0
  8  9  1  0  0  0  0
  9 10  4  0  0  0  0
 10 11  4  0  0  0  0
 11 12  4  0  0  0  0
 12 13  1  0  0  0  0
 13 14  2  0  0  0  0
 12 15  4  0  0  0  0
  9 16  4  0  0  0  0
 15 16  4  0  0  0  0
  8 17  4  0  0  0  0
 17 18  4  0  0  0  0
 18 19  2  0  0  0  0
  1 20  1  0  0  0  0
 17 20  4  0  0  0  0
 19 21  4  0  0  0  0
 20 21  4  0  0  0  0
 21 22  4  0  0  0  0
 22 23  4  0  0  0  0
 23 24  4  0  0  0  0
 24 25  2  0  0  0  0
 25 26  4  0  0  0  0
  1 27  1  0  0  0  0
 23 27  4  0  0  0  0
 26 27  4  0  0  0  0
 26 28  4  0  0  0  0
 28 29  1  0  0  0  0
 29 30  4  0  0  0  0
 30 31  4  0  0  0  0
 31 32  4  0  0  0  0
 32 33  1  0  0  0  0
 33 34  2  0  0  0  0
 32 35  4  0  0  0  0
 29 36  4  0  0  0  0
 35 36  4  0  0  0  0
 28 37  4  0  0  0  0
 37 38  4  0  0  0  0
 38 39  2  0  0  0  0
  2 40  4  0  0  0  0
 39 40  4  0  0  0  0
  1 41  1  0  0  0  0
 37 41  4  0  0  0  0
 40 41  4  0  0  0  0
  2 42  1  0  0  0  0
  4 43  1  0  0  0  0
  5 44  1  0  0  0  0
 10 45  1  0  0  0  0
 11 46  1  0  0  0  0
 13 47  1  0  0  0  0
 15 48  1  0  0  0  0
 16 49  1  0  0  0  0
 18 50  1  0  0  0  0
 19 51  1  0  0  0  0
 24 52  1  0  0  0  0
 25 53  1  0  0  0  0
 30 54  1  0  0  0  0
 31 55  1  0  0  0  0
 33 56  1  0  0  0  0
 35 57  1  0  0  0  0
 36 58  1  0  0  0  0
 38 59  1  0  0  0  0
 39 60  1  0  0  0  0
 62 63  4  0  0  0  0
 63 64  4  0  0  0  0
 64 65  2  0  0  0  0
 65 66  4  0  0  0  0
 61 67  1  0  0  0  0
 63 67  4  0  0  0  0
 66 67  4  0  0  0  0
 66 68  4  0  0  0  0
 68 69  1  0  0  0  0
 69 70  4  0  0  0  0
 70 71  4  0  0  0  0
 71 72  4  0  0  0  0
 72 73  1  0  0  0  0
 73 74  2  0  0  0  0
 72 75  4  0  0  0  0
 69 76  4  0  0  0  0
 75 76  4  0  0  0  0
 68 77  4  0  0  0  0
 77 78  4  0  0  0  0
 78 79  2  0  0  0  0
 61 80  1  0  0  0  0
 77 80  4  0  0  0  0
 79 81  4  0  0  0  0
 80 81  4  0  0  0  0
 81 82  4  0  0  0  0
 82 83  4  0  0  0  0
 83 84  4  0  0  0  0
 84 85  2  0  0  0  0
 85 86  4  0  0  0  0
 61 87  1  0  0  0  0
 83 87  4  0  0  0  0
 86 87  4  0  0  0  0
 86 88  4  0  0  0  0
 88 89  1  0  0  0  0
 89 90  4  0  0  0  0
 90 91  4  0  0  0  0
 91 92  4  0  0  0  0
 92 93  1  0  0  0  0
 93 94  2  0  0  0  0
 92 95  4  0  0  0  0
 89 96  4  0  0  0  0
 95 96  4  0  0  0  0
 88 97  4  0  0  0  0
 97 98  4  0  0  0  0
 98 99  2  0  0  0  0
 62100  4  0  0  0  0
 99100  4  0  0  0  0
 61101  1  0  0  0  0
 97101  4  0  0  0  0
100101  4  0  0  0  0
 62102  1  0  0  0  0
 64103  1  0  0  0  0
 65104  1  0  0  0  0
 70105  1  0  0  0  0
 71106  1  0  0  0  0
 73107  1  0  0  0  0
 75108  1  0  0  0  0
 76109  1  0  0  0  0
 78110  1  0  0  0  0
 79111  1  0  0  0  0
 84112  1  0  0  0  0
 85113  1  0  0  0  0
 90114  1  0  0  0  0
 91115  1  0  0  0  0
 93116  1  0  0  0  0
 95117  1  0  0  0  0
 96118  1  0  0  0  0
 98119  1  0  0  0  0
 99120  1  0  0  0  0
121122  3  0  0  0  0
122123  4  0  0  0  0
 22124  4  0  0  0  0
123124  3  0  0  0  0
121125  4  0  0  0  0
125126  3  0  0  0  0
127128  3  0  0  0  0
128129  4  0  0  0  0
129130  3  0  0  0  0
127131  4  0  0  0  0
 82132  4  0  0  0  0
131132  3  0  0  0  0
126134  4  0  0  0  0
134135  4  0  0  0  0
135136  4  0  0  0  0
136137  2  0  0  0  0
137138  4  0  0  0  0
133139  1  0  0  0  0
135139  4  0  0  0  0
138139  4  0  0  0  0
138140  4  0  0  0  0
140141  1  0  0  0  0
141142  4  0  0  0  0
142143  4  0  0  0  0
143144  4  0  0  0  0
144145  1  0  0  0  0
145146  2  0  0  0  0
144147  4  0  0  0  0
141148  4  0  0  0  0
147148  4  0  0  0  0
140149  4  0  0  0  0
149150  4  0  0  0  0
150151  2  0  0  0  0
133152  1  0  0  0  0
149152  4  0  0  0  0
151153  4  0  0  0  0
152153  4  0  0  0  0
130154  4  0  0  0  0
153154  4  0  0  0  0
154155  4  0  0  0  0
155156  4  0  0  0  0
156157  2  0  0  0  0
157158  4  0  0  0  0
133159  1  0  0  0  0
155159  4  0  0  0  0
158159  4  0  0  0  0
158160  4  0  0  0  0
160161  1  0  0  0  0
161162  4  0  0  0  0
162163  4  0  0  0  0
163164  4  0  0  0  0
164165  1  0  0  0  0
165166  2  0  0  0  0
164167  4  0  0  0  0
161168  4  0  0  0  0
167168  4  0  0  0  0
160169  4  0  0  0  0
169170  4  0  0  0  0
170171  2  0  0  0  0
134172  4  0  0  0  0
171172  4  0  0  0  0
133173  1  0  0  0  0
169173  4  0  0  0  0
172173  4  0  0  0  0
136174  1  0  0  0  0
137175  1  0  0  0  0
142176  1  0  0  0  0
143177  1  0  0  0  0
145178  1  0  0  0  0
147179  1  0  0  0  0
148180  1  0  0  0  0
150181  1  0  0  0  0
151182  1  0  0  0  0
156183  1  0  0  0  0
157184  1  0  0  0  0
162185  1  0  0  0  0
163186  1  0  0  0  0
165187  1  0  0  0  0
167188  1  0  0  0  0
168189  1  0  0  0  0
170190  1  0  0  0  0
171191  1  0  0  0  0
M  END
