460

C 87.974830 -0.609323 0.573974
C 88.665375 -1.249198 -0.670350
C 88.016282 -1.777505 -1.760238
C 89.012900 -2.252632 -2.649817
C 90.238067 -2.009822 -2.069487
N 90.015370 -1.359561 -0.879766
C 91.661313 -2.422503 -2.639077
C 91.716270 -3.302563 -3.838918
C 92.282795 -2.791723 -5.023228
C 92.343771 -3.579844 -6.164517
O 92.899156 -3.122793 -7.326202
C 91.823140 -4.864903 -6.147115
O 91.870383 -5.637973 -7.277906
C 91.236330 -5.371847 -4.989862
O 90.699992 -6.629038 -5.005283
C 91.183210 -4.603178 -3.830828
C 92.791381 -1.930283 -2.055012
C 94.111873 -2.388631 -2.435212
C 95.010033 -1.738212 -1.705804
N 92.974152 -1.003457 -1.062580
C 94.311612 -0.819490 -0.830333
C 94.974309 0.017590 0.012246
C 94.181588 1.062105 0.905595
C 94.672328 2.258008 1.392304
C 93.656018 2.854431 2.180871
C 92.564270 2.014071 2.138755
N 92.878270 0.948768 1.325665
C 91.179125 2.225040 2.876554
C 91.101615 3.255615 3.936016
C 91.575014 3.003047 5.234108
C 91.487586 4.000098 6.193384
O 91.937843 3.774948 7.463703
C 90.942967 5.237239 5.870038
O 90.864004 6.208480 6.834659
C 90.486479 5.496817 4.582231
O 89.971369 6.737823 4.326145
C 90.561089 4.513147 3.609385
C 90.087790 1.516841 2.479748
C 88.800889 1.617318 3.147257
C 87.938354 0.825411 2.517453
C 88.636661 0.206022 1.416984
N 89.930059 0.623705 1.458701
H 86.924134 -0.817833 0.740299
H 86.946658 -1.814627 -1.902228
H 88.851810 -2.731354 -3.604182
H 90.741642 -0.989397 -0.275176
H 92.664720 -1.771596 -5.011235
H 93.213113 -2.225550 -7.133552
H 92.356273 -5.075832 -7.905660
H 90.941481 -6.963734 -5.885971
H 90.721207 -4.994751 -2.927976
H 94.339928 -3.154020 -3.154045
H 96.069931 -1.893099 -1.769500
H 95.657210 2.661474 1.204978
H 93.717700 3.790082 2.716887
H 92.219979 0.224125 1.044185
H 92.004446 2.033975 5.472652
H 91.767925 4.615793 7.928200
H 90.448865 6.961752 6.358593
H 89.737890 6.753938 3.378578
H 90.205639 4.677002 2.593967
H 88.576605 2.211289 4.014667
H 86.904027 0.678479 2.773783
C 181.585249 -0.682525 0.479575
C 180.894704 0.363320 1.409085
C 181.543797 1.287368 2.192092
C 180.547179 2.030652 2.873726
C 179.322012 1.529043 2.494084
N 179.544710 0.538667 1.568108
C 177.898766 1.977960 3.035574
C 177.843809 2.920928 4.186633
C 177.277284 4.195126 3.986719
C 177.216308 5.104274 5.034156
O 176.660924 6.343169 4.880704
C 177.736939 4.767497 6.274422
O 177.689696 5.670225 7.304670
C 178.323749 3.520473 6.477300
O 178.860087 3.222423 7.698747
C 178.376869 2.589296 5.444284
C 176.768698 1.534826 2.413446
C 175.448206 1.788946 2.952016
C 174.550046 1.244429 2.140485
N 176.585927 0.804380 1.268729
C 175.248467 0.625244 1.032735
C 174.585771 0.017590 0.012246
C 175.378491 -0.587593 -1.221787
C 174.887751 -0.761251 -2.501206
C 175.904061 -1.376507 -3.275169
C 176.995809 -1.544929 -2.450782
N 176.681809 -1.022654 -1.216597
C 178.380954 -2.206977 -2.838788
C 178.458464 -2.976514 -4.100675
C 177.985065 -4.296613 -4.179227
C 178.072493 -4.977465 -5.383703
O 177.622236 -6.263840 -5.481895
C 178.617112 -4.356305 -6.501394
O 178.696075 -5.048759 -7.682203
C 179.073600 -3.044422 -6.432192
O 179.588710 -2.487444 -7.570370
C 178.998990 -2.347097 -5.237297
C 179.472289 -1.998975 -2.054100
C 180.759190 -2.620453 -2.317593
C 181.621725 -2.207629 -1.393827
C 180.923418 -1.296009 -0.519971
N 179.630020 -1.232427 -0.934889
H 182.635945 -0.895524 0.640113
H 182.613421 1.415645 2.263395
H 180.708269 2.835788 3.574970
H 178.818437 0.045267 1.059083
H 176.895359 4.437477 2.995725
H 176.346966 6.379958 3.963749
H 177.203806 6.418162 6.916510
H 178.618598 3.992058 8.242158
H 178.838872 1.617387 5.598759
H 175.220151 2.294598 3.872264
H 173.490148 1.267560 2.306353
H 173.902870 -0.479378 -2.845333
H 175.842379 -1.662710 -4.314805
H 177.340100 -0.930440 -0.444694
H 177.555633 -4.768903 -3.300053
H 177.792154 -6.504379 -6.411905
H 179.111214 -4.400150 -8.293239
H 179.822189 -1.565699 -7.350075
H 179.354440 -1.322857 -5.143198
H 180.983474 -3.312680 -3.108811
H 182.656052 -2.492467 -1.315335
C 98.789882 0.030321 0.014771
C 97.537612 0.011140 0.010423
C 100.103550 0.029555 0.016704
C 101.606684 0.011140 0.010423
C 112.890253 0.030321 0.014771
C 111.637982 0.011140 0.010423
C 114.203921 0.029555 0.016704
C 115.707055 0.011140 0.010423
C 126.990623 0.030321 0.014771
C 125.738353 0.011140 0.010423
C 128.304292 0.029555 0.016704
C 129.807425 0.011140 0.010423
C 141.090994 0.030321 0.014771
C 139.838724 0.011140 0.010423
C 142.404662 0.029555 0.016704
C 143.907796 0.011140 0.010423
C 155.191365 0.030321 0.014771
C 153.939094 0.011140 0.010423
C 156.505033 0.029555 0.016704
C 158.008167 0.011140 0.010423
C 169.291735 0.030321 0.014771
C 168.039465 0.011140 0.010423
C 170.605404 0.029555 0.016704
C 172.108537 0.011140 0.010423
C 103.018764 -0.008012 -0.005784
C 103.803197 -1.354684 0.287701
C 103.268660 -2.524135 0.792286
C 104.306077 -3.489638 0.814877
C 105.446460 -2.877182 0.336295
N 105.147215 -1.560081 0.086268
C 106.847871 -3.569198 0.095954
C 106.855180 -5.032850 -0.131611
C 107.181847 -5.913953 0.916651
C 107.190094 -7.291843 0.691756
O 107.519339 -8.153058 1.707460
C 106.868361 -7.788953 -0.571684
O 106.868925 -9.135571 -0.826032
C 106.542884 -6.910521 -1.612278
O 106.240993 -7.446300 -2.843832
C 106.532142 -5.535395 -1.402794
C 107.983603 -2.826305 0.026650
C 109.274929 -3.421312 -0.251153
C 110.181870 -2.452981 -0.290904
N 108.191478 -1.480794 0.158148
C 109.517795 -1.191292 -0.028454
C 110.187145 -0.008012 -0.005784
C 109.404545 1.339084 0.285868
C 109.938271 2.502880 0.806958
C 108.903481 3.471586 0.823206
C 107.764273 2.865651 0.327030
N 108.065150 1.552750 0.058262
C 106.357932 3.555319 0.100125
C 106.315773 5.034768 0.046003
C 106.592214 5.727714 -1.143992
C 106.530747 7.115737 -1.150879
O 106.788512 7.805498 -2.304820
C 106.202499 7.811927 0.011162
O 106.139132 9.181438 -0.018889
C 105.937233 7.128626 1.193385
O 105.618753 7.859614 2.308701
C 105.992544 5.741797 1.220304
C 105.225680 2.807618 0.004905
C 103.927916 3.405794 -0.244435
C 103.020709 2.436745 -0.281639
C 103.690826 1.172879 -0.047635
N 105.023230 1.458507 0.101767
H 102.240356 -2.677458 1.086897
H 104.223293 -4.521806 1.126342
H 105.818575 -0.846414 -0.185243
H 107.430987 -5.492082 1.889704
H 107.774838 -7.612965 2.478402
H 106.623569 -9.188095 -1.772386
H 106.061078 -6.688972 -3.433932
H 106.285783 -4.831983 -2.196530
H 109.477572 -4.465291 -0.411819
H 111.227845 -2.602074 -0.488136
H 110.963167 2.650504 1.119307
H 108.987946 4.499226 1.145292
H 107.393808 0.842797 -0.225860
H 106.842753 5.175107 -2.047159
H 106.644773 8.739614 -2.054365
H 105.882717 9.408611 0.900299
H 105.473493 7.212051 3.023634
H 105.784370 5.173791 2.123947
H 103.724161 4.451618 -0.393410
H 101.970403 2.586445 -0.453610
C 117.119135 -0.008012 -0.005784
C 117.903568 -1.354684 0.287701
C 117.369031 -2.524135 0.792286
C 118.406448 -3.489638 0.814877
C 119.546831 -2.877182 0.336295
N 119.247585 -1.560081 0.086268
C 120.948242 -3.569198 0.095954
C 120.955550 -5.032850 -0.131611
C 121.282218 -5.913953 0.916651
C 121.290464 -7.291843 0.691756
O 121.619710 -8.153058 1.707460
C 120.968731 -7.788953 -0.571684
O 120.969296 -9.135571 -0.826032
C 120.643255 -6.910521 -1.612278
O 120.341364 -7.446300 -2.843832
C 120.632512 -5.535395 -1.402794
C 122.083973 -2.826305 0.026650
C 123.375299 -3.421312 -0.251153
C 124.282241 -2.452981 -0.290904
N 122.291848 -1.480794 0.158148
C 123.618166 -1.191292 -0.028454
C 124.287516 -0.008012 -0.005784
C 123.504916 1.339084 0.285868
C 124.038642 2.502880 0.806958
C 123.003851 3.471586 0.823206
C 121.864643 2.865651 0.327030
N 122.165521 1.552750 0.058262
C 120.458303 3.555319 0.100125
C 120.416144 5.034768 0.046003
C 120.692585 5.727714 -1.143992
C 120.631117 7.115737 -1.150879
O 120.888883 7.805498 -2.304820
C 120.302870 7.811927 0.011162
O 120.239502 9.181438 -0.018889
C 120.037604 7.128626 1.193385
O 119.719124 7.859614 2.308701
C 120.092915 5.741797 1.220304
C 119.326051 2.807618 0.004905
C 118.028286 3.405794 -0.244435
C 117.121080 2.436745 -0.281639
C 117.791197 1.172879 -0.047635
N 119.123601 1.458507 0.101767
H 116.340726 -2.677458 1.086897
H 118.323663 -4.521806 1.126342
H 119.918946 -0.846414 -0.185243
H 121.531358 -5.492082 1.889704
H 121.875208 -7.612965 2.478402
H 120.723940 -9.188095 -1.772386
H 120.161449 -6.688972 -3.433932
H 120.386154 -4.831983 -2.196530
H 123.577942 -4.465291 -0.411819
H 125.328215 -2.602074 -0.488136
H 125.063537 2.650504 1.119307
H 123.088317 4.499226 1.145292
H 121.494179 0.842797 -0.225860
H 120.943123 5.175107 -2.047159
H 120.745143 8.739614 -2.054365
H 119.983088 9.408611 0.900299
H 119.573864 7.212051 3.023634
H 119.884740 5.173791 2.123947
H 117.824531 4.451618 -0.393410
H 116.070773 2.586445 -0.453610
C 131.219505 -0.008012 -0.005784
C 132.003939 -1.354684 0.287701
C 131.469401 -2.524135 0.792286
C 132.506819 -3.489638 0.814877
C 133.647202 -2.877182 0.336295
N 133.347956 -1.560081 0.086268
C 135.048612 -3.569198 0.095954
C 135.055921 -5.032850 -0.131611
C 135.382588 -5.913953 0.916651
C 135.390835 -7.291843 0.691756
O 135.720080 -8.153058 1.707460
C 135.069102 -7.788953 -0.571684
O 135.069666 -9.135571 -0.826032
C 134.743626 -6.910521 -1.612278
O 134.441735 -7.446300 -2.843832
C 134.732883 -5.535395 -1.402794
C 136.184344 -2.826305 0.026650
C 137.475670 -3.421312 -0.251153
C 138.382611 -2.452981 -0.290904
N 136.392219 -1.480794 0.158148
C 137.718536 -1.191292 -0.028454
C 138.387886 -0.008012 -0.005784
C 137.605286 1.339084 0.285868
C 138.139013 2.502880 0.806958
C 137.104222 3.471586 0.823206
C 135.965014 2.865651 0.327030
N 136.265891 1.552750 0.058262
C 134.558673 3.555319 0.100125
C 134.516514 5.034768 0.046003
C 134.792955 5.727714 -1.143992
C 134.731488 7.115737 -1.150879
O 134.989253 7.805498 -2.304820
C 134.403241 7.811927 0.011162
O 134.339873 9.181438 -0.018889
C 134.137975 7.128626 1.193385
O 133.819494 7.859614 2.308701
C 134.193285 5.741797 1.220304
C 133.426422 2.807618 0.004905
C 132.128657 3.405794 -0.244435
C 131.221451 2.436745 -0.281639
C 131.891567 1.172879 -0.047635
N 133.223971 1.458507 0.101767
H 130.441097 -2.677458 1.086897
H 132.424034 -4.521806 1.126342
H 134.019316 -0.846414 -0.185243
H 135.631729 -5.492082 1.889704
H 135.975579 -7.612965 2.478402
H 134.824310 -9.188095 -1.772386
H 134.261819 -6.688972 -3.433932
H 134.486524 -4.831983 -2.196530
H 137.678313 -4.465291 -0.411819
H 139.428586 -2.602074 -0.488136
H 139.163908 2.650504 1.119307
H 137.188688 4.499226 1.145292
H 135.594550 0.842797 -0.225860
H 135.043494 5.175107 -2.047159
H 134.845514 8.739614 -2.054365
H 134.083458 9.408611 0.900299
H 133.674235 7.212051 3.023634
H 133.985111 5.173791 2.123947
H 131.924902 4.451618 -0.393410
H 130.171144 2.586445 -0.453610
C 145.319876 -0.008012 -0.005784
C 146.104309 -1.354684 0.287701
C 145.569772 -2.524135 0.792286
C 146.607189 -3.489638 0.814877
C 147.747572 -2.877182 0.336295
N 147.448327 -1.560081 0.086268
C 149.148983 -3.569198 0.095954
C 149.156292 -5.032850 -0.131611
C 149.482959 -5.913953 0.916651
C 149.491206 -7.291843 0.691756
O 149.820451 -8.153058 1.707460
C 149.169473 -7.788953 -0.571684
O 149.170037 -9.135571 -0.826032
C 148.843996 -6.910521 -1.612278
O 148.542105 -7.446300 -2.843832
C 148.833254 -5.535395 -1.402794
C 150.284715 -2.826305 0.026650
C 151.576041 -3.421312 -0.251153
C 152.482982 -2.452981 -0.290904
N 150.492590 -1.480794 0.158148
C 151.818907 -1.191292 -0.028454
C 152.488257 -0.008012 -0.005784
C 151.705657 1.339084 0.285868
C 152.239383 2.502880 0.806958
C 151.204593 3.471586 0.823206
C 150.065385 2.865651 0.327030
N 150.366262 1.552750 0.058262
C 148.659044 3.555319 0.100125
C 148.616885 5.034768 0.046003
C 148.893326 5.727714 -1.143992
C 148.831859 7.115737 -1.150879
O 149.089624 7.805498 -2.304820
C 148.503611 7.811927 0.011162
O 148.440244 9.181438 -0.018889
C 148.238345 7.128626 1.193385
O 147.919865 7.859614 2.308701
C 148.293656 5.741797 1.220304
C 147.526792 2.807618 0.004905
C 146.229028 3.405794 -0.244435
C 145.321821 2.436745 -0.281639
C 145.991938 1.172879 -0.047635
N 147.324342 1.458507 0.101767
H 144.541468 -2.677458 1.086897
H 146.524405 -4.521806 1.126342
H 148.119687 -0.846414 -0.185243
H 149.732099 -5.492082 1.889704
H 150.075950 -7.612965 2.478402
H 148.924681 -9.188095 -1.772386
H 148.362190 -6.688972 -3.433932
H 148.586895 -4.831983 -2.196530
H 151.778684 -4.465291 -0.411819
H 153.528957 -2.602074 -0.488136
H 153.264279 2.650504 1.119307
H 151.289058 4.499226 1.145292
H 149.694920 0.842797 -0.225860
H 149.143865 5.175107 -2.047159
H 148.945885 8.739614 -2.054365
H 148.183829 9.408611 0.900299
H 147.774605 7.212051 3.023634
H 148.085482 5.173791 2.123947
H 146.025273 4.451618 -0.393410
H 144.271515 2.586445 -0.453610
C 159.420247 -0.008012 -0.005784
C 160.204680 -1.354684 0.287701
C 159.670143 -2.524135 0.792286
C 160.707560 -3.489638 0.814877
C 161.847943 -2.877182 0.336295
N 161.548697 -1.560081 0.086268
C 163.249354 -3.569198 0.095954
C 163.256662 -5.032850 -0.131611
C 163.583330 -5.913953 0.916651
C 163.591576 -7.291843 0.691756
O 163.920822 -8.153058 1.707460
C 163.269843 -7.788953 -0.571684
O 163.270408 -9.135571 -0.826032
C 162.944367 -6.910521 -1.612278
O 162.642476 -7.446300 -2.843832
C 162.933624 -5.535395 -1.402794
C 164.385085 -2.826305 0.026650
C 165.676411 -3.421312 -0.251153
C 166.583353 -2.452981 -0.290904
N 164.592960 -1.480794 0.158148
C 165.919278 -1.191292 -0.028454
C 166.588628 -0.008012 -0.005784
C 165.806028 1.339084 0.285868
C 166.339754 2.502880 0.806958
C 165.304963 3.471586 0.823206
C 164.165755 2.865651 0.327030
N 164.466633 1.552750 0.058262
C 162.759415 3.555319 0.100125
C 162.717256 5.034768 0.046003
C 162.993697 5.727714 -1.143992
C 162.932229 7.115737 -1.150879
O 163.189995 7.805498 -2.304820
C 162.603982 7.811927 0.011162
O 162.540614 9.181438 -0.018889
C 162.338716 7.128626 1.193385
O 162.020236 7.859614 2.308701
C 162.394027 5.741797 1.220304
C 161.627163 2.807618 0.004905
C 160.329398 3.405794 -0.244435
C 159.422192 2.436745 -0.281639
C 160.092309 1.172879 -0.047635
N 161.424713 1.458507 0.101767
H 158.641838 -2.677458 1.086897
H 160.624775 -4.521806 1.126342
H 162.220058 -0.846414 -0.185243
H 163.832470 -5.492082 1.889704
H 164.176320 -7.612965 2.478402
H 163.025052 -9.188095 -1.772386
H 162.462561 -6.688972 -3.433932
H 162.687266 -4.831983 -2.196530
H 165.879054 -4.465291 -0.411819
H 167.629327 -2.602074 -0.488136
H 167.364649 2.650504 1.119307
H 165.389429 4.499226 1.145292
H 163.795291 0.842797 -0.225860
H 163.244235 5.175107 -2.047159
H 163.046255 8.739614 -2.054365
H 162.284200 9.408611 0.900299
H 161.874976 7.212051 3.023634
H 162.185852 5.173791 2.123947
H 160.125643 4.451618 -0.393410
H 158.371885 2.586445 -0.453610
