 xtb: 6.5.1 (b24c23e)
          07302215003D

148167  0     0  0            999 V2000
   14.4414    0.0368    0.0235 Zn  0  0  0  0  0  0  0  0  0  0  0  0
   11.0349    0.2277   -0.1079 C   0  0  0  0  0  0  0  0  0  0  0  0
   11.6688    1.0700    0.7983 C   0  0  0  0  0  0  0  0  0  0  0  0
   11.0021    1.9916    1.6763 C   0  0  0  0  0  0  0  0  0  0  0  0
   11.9641    2.6157    2.4010 C   0  0  0  0  0  0  0  0  0  0  0  0
   13.2309    2.0871    1.9706 C   0  0  0  0  0  0  0  0  0  0  0  0
   13.0161    1.1515    1.0011 N   0  0  0  0  0  0  0  0  0  0  0  0
   14.4793    2.4574    2.4798 C   0  0  0  0  0  0  0  0  0  0  0  0
   15.7130    1.9390    2.0787 C   0  0  0  0  0  0  0  0  0  0  0  0
   16.9911    2.3551    2.5854 C   0  0  0  0  0  0  0  0  0  0  0  0
   17.9361    1.6368    1.9269 C   0  0  0  0  0  0  0  0  0  0  0  0
   15.9059    0.9782    1.1220 N   0  0  0  0  0  0  0  0  0  0  0  0
   17.2456    0.7761    1.0106 C   0  0  0  0  0  0  0  0  0  0  0  0
   17.8742   -0.1296    0.1319 C   0  0  0  0  0  0  0  0  0  0  0  0
   17.2164   -0.9841   -0.7761 C   0  0  0  0  0  0  0  0  0  0  0  0
   17.8756   -1.9201   -1.6399 C   0  0  0  0  0  0  0  0  0  0  0  0
   16.9080   -2.5544   -2.3500 C   0  0  0  0  0  0  0  0  0  0  0  0
   15.6476   -2.0068   -1.9318 C   0  0  0  0  0  0  0  0  0  0  0  0
   14.3975   -2.3958   -2.4193 C   0  0  0  0  0  0  0  0  0  0  0  0
   14.3774   -3.4513   -3.4735 C   0  0  0  0  0  0  0  0  0  0  0  0
   14.8250   -3.1678   -4.7703 C   0  0  0  0  0  0  0  0  0  0  0  0
   15.2516   -1.8947   -4.9863 O   0  0  0  0  0  0  0  0  0  0  0  0
   15.7408   -1.5105   -6.2549 C   0  0  0  0  0  0  0  0  0  0  0  0
   14.8062   -4.1550   -5.7553 C   0  0  0  0  0  0  0  0  0  0  0  0
   14.3435   -5.4231   -5.4380 C   0  0  0  0  0  0  0  0  0  0  0  0
   13.8957   -5.7273   -4.1614 C   0  0  0  0  0  0  0  0  0  0  0  0
   13.9102   -4.7384   -3.1782 C   0  0  0  0  0  0  0  0  0  0  0  0
   13.4976   -4.9413   -1.8980 O   0  0  0  0  0  0  0  0  0  0  0  0
   13.0007   -6.2022   -1.4991 C   0  0  0  0  0  0  0  0  0  0  0  0
   13.1627   -1.8834   -2.0094 C   0  0  0  0  0  0  0  0  0  0  0  0
   11.8822   -2.2682   -2.5399 C   0  0  0  0  0  0  0  0  0  0  0  0
   10.9431   -1.5322   -1.8942 C   0  0  0  0  0  0  0  0  0  0  0  0
   11.6386   -0.6859   -0.9643 C   0  0  0  0  0  0  0  0  0  0  0  0
   12.9797   -0.9213   -1.0596 N   0  0  0  0  0  0  0  0  0  0  0  0
   15.8729   -1.0581   -0.9699 N   0  0  0  0  0  0  0  0  0  0  0  0
   14.4961    3.5032    3.5434 C   0  0  0  0  0  0  0  0  0  0  0  0
   14.8122    3.1648    4.8655 C   0  0  0  0  0  0  0  0  0  0  0  0
   15.0802    1.8514    5.0944 O   0  0  0  0  0  0  0  0  0  0  0  0
   15.4361    1.4095    6.3884 C   0  0  0  0  0  0  0  0  0  0  0  0
   14.8276    4.1424    5.8600 C   0  0  0  0  0  0  0  0  0  0  0  0
   14.5312    5.4555    5.5271 C   0  0  0  0  0  0  0  0  0  0  0  0
   14.2166    5.8146    4.2251 C   0  0  0  0  0  0  0  0  0  0  0  0
   14.1968    4.8357    3.2321 C   0  0  0  0  0  0  0  0  0  0  0  0
   13.9077    5.0899    1.9274 O   0  0  0  0  0  0  0  0  0  0  0  0
   13.5844    6.4001    1.5092 C   0  0  0  0  0  0  0  0  0  0  0  0
    9.9517    0.2895   -0.1509 H   0  0  0  0  0  0  0  0  0  0  0  0
    9.9332    2.1317    1.7250 H   0  0  0  0  0  0  0  0  0  0  0  0
   11.8352    3.3688    3.1622 H   0  0  0  0  0  0  0  0  0  0  0  0
   17.1416    3.1045    3.3461 H   0  0  0  0  0  0  0  0  0  0  0  0
   19.0075    1.6809    2.0436 H   0  0  0  0  0  0  0  0  0  0  0  0
   18.9428   -2.0700   -1.6869 H   0  0  0  0  0  0  0  0  0  0  0  0
   17.0319   -3.3268   -3.0921 H   0  0  0  0  0  0  0  0  0  0  0  0
   14.9692   -1.6042   -7.0289 H   0  0  0  0  0  0  0  0  0  0  0  0
   16.0312   -0.4621   -6.1641 H   0  0  0  0  0  0  0  0  0  0  0  0
   16.6175   -2.1029   -6.5438 H   0  0  0  0  0  0  0  0  0  0  0  0
   15.1463   -3.9451   -6.7606 H   0  0  0  0  0  0  0  0  0  0  0  0
   14.3312   -6.1917   -6.2032 H   0  0  0  0  0  0  0  0  0  0  0  0
   13.5418   -6.7258   -3.9419 H   0  0  0  0  0  0  0  0  0  0  0  0
   12.7271   -6.1025   -0.4470 H   0  0  0  0  0  0  0  0  0  0  0  0
   12.1119   -6.4853   -2.0763 H   0  0  0  0  0  0  0  0  0  0  0  0
   13.7624   -6.9850   -1.6001 H   0  0  0  0  0  0  0  0  0  0  0  0
   11.7292   -3.0070   -3.3105 H   0  0  0  0  0  0  0  0  0  0  0  0
    9.8726   -1.5496   -2.0290 H   0  0  0  0  0  0  0  0  0  0  0  0
   15.6203    0.3368    6.3036 H   0  0  0  0  0  0  0  0  0  0  0  0
   14.6263    1.5795    7.1085 H   0  0  0  0  0  0  0  0  0  0  0  0
   16.3478    1.9039    6.7453 H   0  0  0  0  0  0  0  0  0  0  0  0
   15.0662    3.8906    6.8847 H   0  0  0  0  0  0  0  0  0  0  0  0
   14.5453    6.2163    6.3000 H   0  0  0  0  0  0  0  0  0  0  0  0
   13.9916    6.8472    3.9939 H   0  0  0  0  0  0  0  0  0  0  0  0
   14.4148    7.0950    1.6846 H   0  0  0  0  0  0  0  0  0  0  0  0
   13.3903    6.3378    0.4368 H   0  0  0  0  0  0  0  0  0  0  0  0
   12.6864    6.7738    2.0162 H   0  0  0  0  0  0  0  0  0  0  0  0
   27.9117   -0.0179   -0.0392 Zn  0  0  0  0  0  0  0  0  0  0  0  0
   31.3179    0.1421   -0.2113 C   0  0  0  0  0  0  0  0  0  0  0  0
   30.6844   -0.6360   -1.1734 C   0  0  0  0  0  0  0  0  0  0  0  0
   31.3511   -1.3740   -2.2105 C   0  0  0  0  0  0  0  0  0  0  0  0
   30.3893   -2.0040   -2.9304 C   0  0  0  0  0  0  0  0  0  0  0  0
   29.1226   -1.6539   -2.3454 C   0  0  0  0  0  0  0  0  0  0  0  0
   29.3372   -0.8265   -1.2821 N   0  0  0  0  0  0  0  0  0  0  0  0
   27.8742   -2.1060   -2.7838 C   0  0  0  0  0  0  0  0  0  0  0  0
   26.6405   -1.7829   -2.2135 C   0  0  0  0  0  0  0  0  0  0  0  0
   25.3625   -2.2253   -2.6976 C   0  0  0  0  0  0  0  0  0  0  0  0
   24.4174   -1.6754   -1.8932 C   0  0  0  0  0  0  0  0  0  0  0  0
   26.4475   -0.9722   -1.1267 N   0  0  0  0  0  0  0  0  0  0  0  0
   25.1078   -0.8906   -0.9111 C   0  0  0  0  0  0  0  0  0  0  0  0
   24.4789   -0.1493    0.1100 C   0  0  0  0  0  0  0  0  0  0  0  0
   25.1363    0.6282    1.0849 C   0  0  0  0  0  0  0  0  0  0  0  0
   24.4769    1.3507    2.1337 C   0  0  0  0  0  0  0  0  0  0  0  0
   25.4445    1.9633    2.8627 C   0  0  0  0  0  0  0  0  0  0  0  0
   26.7050    1.6269    2.2617 C   0  0  0  0  0  0  0  0  0  0  0  0
   27.9552    2.0541    2.7161 C   0  0  0  0  0  0  0  0  0  0  0  0
   27.9752    2.9474    3.9108 C   0  0  0  0  0  0  0  0  0  0  0  0
   27.5266    4.2711    3.8149 C   0  0  0  0  0  0  0  0  0  0  0  0
   27.0993    4.6657    2.5856 O   0  0  0  0  0  0  0  0  0  0  0  0
   26.6092    5.9757    2.3859 C   0  0  0  0  0  0  0  0  0  0  0  0
   27.5450    5.1055    4.9322 C   0  0  0  0  0  0  0  0  0  0  0  0
   28.0084    4.6113    6.1421 C   0  0  0  0  0  0  0  0  0  0  0  0
   28.4574    3.3047    6.2614 C   0  0  0  0  0  0  0  0  0  0  0  0
   28.4432    2.4723    5.1426 C   0  0  0  0  0  0  0  0  0  0  0  0
   28.8570    1.1767    5.1611 O   0  0  0  0  0  0  0  0  0  0  0  0
   29.3551    0.6028    6.3521 C   0  0  0  0  0  0  0  0  0  0  0  0
   29.1899    1.7214    2.1504 C   0  0  0  0  0  0  0  0  0  0  0  0
   30.4703    2.1924    2.6063 C   0  0  0  0  0  0  0  0  0  0  0  0
   31.4094    1.6591    1.7854 C   0  0  0  0  0  0  0  0  0  0  0  0
   30.7140    0.8590    0.8153 C   0  0  0  0  0  0  0  0  0  0  0  0
   29.3730    0.9187    1.0625 N   0  0  0  0  0  0  0  0  0  0  0  0
   26.4799    0.8094    1.1860 N   0  0  0  0  0  0  0  0  0  0  0  0
   27.8575   -3.0105   -3.9699 C   0  0  0  0  0  0  0  0  0  0  0  0
   27.5419   -4.3673   -3.8224 C   0  0  0  0  0  0  0  0  0  0  0  0
   27.2746   -4.7804   -2.5546 O   0  0  0  0  0  0  0  0  0  0  0  0
   26.9183   -6.1239   -2.3008 C   0  0  0  0  0  0  0  0  0  0  0  0
   27.5264   -5.2131   -4.9312 C   0  0  0  0  0  0  0  0  0  0  0  0
   27.8223   -4.6971   -6.1839 C   0  0  0  0  0  0  0  0  0  0  0  0
   28.1363   -3.3572   -6.3547 C   0  0  0  0  0  0  0  0  0  0  0  0
   28.1563   -2.5131   -5.2449 C   0  0  0  0  0  0  0  0  0  0  0  0
   28.4449   -1.1855   -5.3115 O   0  0  0  0  0  0  0  0  0  0  0  0
   28.7679   -0.5856   -6.5491 C   0  0  0  0  0  0  0  0  0  0  0  0
   32.4010    0.1946   -0.2670 H   0  0  0  0  0  0  0  0  0  0  0  0
   32.4200   -1.4014   -2.3567 H   0  0  0  0  0  0  0  0  0  0  0  0
   30.5184   -2.6508   -3.7836 H   0  0  0  0  0  0  0  0  0  0  0  0
   25.2122   -2.8718   -3.5474 H   0  0  0  0  0  0  0  0  0  0  0  0
   23.3460   -1.7846   -1.9536 H   0  0  0  0  0  0  0  0  0  0  0  0
   23.4098    1.3762    2.2885 H   0  0  0  0  0  0  0  0  0  0  0  0
   25.3204    2.5885    3.7325 H   0  0  0  0  0  0  0  0  0  0  0  0
   27.3805    6.7290    2.5882 H   0  0  0  0  0  0  0  0  0  0  0  0
   26.3181    6.0347    1.3355 H   0  0  0  0  0  0  0  0  0  0  0  0
   25.7328    6.1771    3.0140 H   0  0  0  0  0  0  0  0  0  0  0  0
   27.2041    6.1302    4.8677 H   0  0  0  0  0  0  0  0  0  0  0  0
   28.0204    5.2593    7.0118 H   0  0  0  0  0  0  0  0  0  0  0  0
   28.8119    2.9457    7.2184 H   0  0  0  0  0  0  0  0  0  0  0  0
   29.6294   -0.4242    6.1035 H   0  0  0  0  0  0  0  0  0  0  0  0
   30.2435    1.1347    6.7140 H   0  0  0  0  0  0  0  0  0  0  0  0
   28.5938    0.5906    7.1417 H   0  0  0  0  0  0  0  0  0  0  0  0
   30.6233    2.8496    3.4477 H   0  0  0  0  0  0  0  0  0  0  0  0
   32.4798    1.7907    1.8213 H   0  0  0  0  0  0  0  0  0  0  0  0
   26.7347   -6.1922   -1.2269 H   0  0  0  0  0  0  0  0  0  0  0  0
   27.7277   -6.8129   -2.5717 H   0  0  0  0  0  0  0  0  0  0  0  0
   26.0063   -6.4066   -2.8405 H   0  0  0  0  0  0  0  0  0  0  0  0
   27.2883   -6.2632   -4.8273 H   0  0  0  0  0  0  0  0  0  0  0  0
   27.8081   -5.3542   -7.0466 H   0  0  0  0  0  0  0  0  0  0  0  0
   28.3609   -2.9818   -7.3441 H   0  0  0  0  0  0  0  0  0  0  0  0
   27.9373   -0.6607   -7.2617 H   0  0  0  0  0  0  0  0  0  0  0  0
   28.9620    0.4671   -6.3354 H   0  0  0  0  0  0  0  0  0  0  0  0
   29.6659   -1.0344   -6.9911 H   0  0  0  0  0  0  0  0  0  0  0  0
   20.5015   -0.1901    0.1688 C   0  0  0  0  0  0  0  0  0  0  0  0
   19.2793   -0.1745    0.1565 C   0  0  0  0  0  0  0  0  0  0  0  0
   21.8515   -0.1949    0.1652 C   0  0  0  0  0  0  0  0  0  0  0  0
   23.0737   -0.1799    0.1501 C   0  0  0  0  0  0  0  0  0  0  0  0
  2  3  4  0  0  0  0
  3  4  4  0  0  0  0
  4  5  2  0  0  0  0
  5  6  4  0  0  0  0
  1  7  1  0  0  0  0
  3  7  4  0  0  0  0
  6  7  4  0  0  0  0
  6  8  4  0  0  0  0
  8  9  4  0  0  0  0
  9 10  4  0  0  0  0
 10 11  2  0  0  0  0
  1 12  1  0  0  0  0
  9 12  4  0  0  0  0
 11 13  4  0  0  0  0
 12 13  4  0  0  0  0
 13 14  4  0  0  0  0
 14 15  4  0  0  0  0
 15 16  4  0  0  0  0
 16 17  2  0  0  0  0
 17 18  4  0  0  0  0
 18 19  4  0  0  0  0
 19 20  1  0  0  0  0
 20 21  4  0  0  0  0
 21 22  1  0  0  0  0
 22 23  1  0  0  0  0
 21 24  4  0  0  0  0
 24 25  4  0  0  0  0
 25 26  4  0  0  0  0
 20 27  4  0  0  0  0
 26 27  4  0  0  0  0
 27 28  1  0  0  0  0
 28 29  1  0  0  0  0
 19 30  4  0  0  0  0
 30 31  4  0  0  0  0
 31 32  2  0  0  0  0
  2 33  4  0  0  0  0
 32 33  4  0  0  0  0
  1 34  1  0  0  0  0
 30 34  4  0  0  0  0
 33 34  4  0  0  0  0
  1 35  1  0  0  0  0
 15 35  4  0  0  0  0
 18 35  4  0  0  0  0
  8 36  1  0  0  0  0
 36 37  4  0  0  0  0
 37 38  1  0  0  0  0
 38 39  1  0  0  0  0
 37 40  4  0  0  0  0
 40 41  4  0  0  0  0
 41 42  4  0  0  0  0
 36 43  4  0  0  0  0
 42 43  4  0  0  0  0
 43 44  1  0  0  0  0
 44 45  1  0  0  0  0
  2 46  1  0  0  0  0
  4 47  1  0  0  0  0
  5 48  1  0  0  0  0
 10 49  1  0  0  0  0
 11 50  1  0  0  0  0
 16 51  1  0  0  0  0
 17 52  1  0  0  0  0
 23 53  1  0  0  0  0
 23 54  1  0  0  0  0
 23 55  1  0  0  0  0
 24 56  1  0  0  0  0
 25 57  1  0  0  0  0
 26 58  1  0  0  0  0
 29 59  1  0  0  0  0
 29 60  1  0  0  0  0
 29 61  1  0  0  0  0
 31 62  1  0  0  0  0
 32 63  1  0  0  0  0
 39 64  1  0  0  0  0
 39 65  1  0  0  0  0
 39 66  1  0  0  0  0
 40 67  1  0  0  0  0
 41 68  1  0  0  0  0
 42 69  1  0  0  0  0
 45 70  1  0  0  0  0
 45 71  1  0  0  0  0
 45 72  1  0  0  0  0
 74 75  4  0  0  0  0
 75 76  4  0  0  0  0
 76 77  2  0  0  0  0
 77 78  4  0  0  0  0
 73 79  1  0  0  0  0
 75 79  4  0  0  0  0
 78 79  4  0  0  0  0
 78 80  4  0  0  0  0
 80 81  4  0  0  0  0
 81 82  4  0  0  0  0
 82 83  2  0  0  0  0
 73 84  1  0  0  0  0
 81 84  4  0  0  0  0
 83 85  4  0  0  0  0
 84 85  4  0  0  0  0
 85 86  4  0  0  0  0
 86 87  4  0  0  0  0
 87 88  4  0  0  0  0
 88 89  2  0  0  0  0
 89 90  4  0  0  0  0
 90 91  4  0  0  0  0
 91 92  1  0  0  0  0
 92 93  4  0  0  0  0
 93 94  1  0  0  0  0
 94 95  1  0  0  0  0
 93 96  4  0  0  0  0
 96 97  4  0  0  0  0
 97 98  4  0  0  0  0
 92 99  4  0  0  0  0
 98 99  4  0  0  0  0
 99100  1  0  0  0  0
100101  1  0  0  0  0
 91102  4  0  0  0  0
102103  4  0  0  0  0
103104  2  0  0  0  0
 74105  4  0  0  0  0
104105  4  0  0  0  0
 73106  1  0  0  0  0
102106  4  0  0  0  0
105106  4  0  0  0  0
 73107  1  0  0  0  0
 87107  4  0  0  0  0
 90107  4  0  0  0  0
 80108  1  0  0  0  0
108109  4  0  0  0  0
109110  1  0  0  0  0
110111  1  0  0  0  0
109112  4  0  0  0  0
112113  4  0  0  0  0
113114  4  0  0  0  0
108115  4  0  0  0  0
114115  4  0  0  0  0
115116  1  0  0  0  0
116117  1  0  0  0  0
 74118  1  0  0  0  0
 76119  1  0  0  0  0
 77120  1  0  0  0  0
 82121  1  0  0  0  0
 83122  1  0  0  0  0
 88123  1  0  0  0  0
 89124  1  0  0  0  0
 95125  1  0  0  0  0
 95126  1  0  0  0  0
 95127  1  0  0  0  0
 96128  1  0  0  0  0
 97129  1  0  0  0  0
 98130  1  0  0  0  0
101131  1  0  0  0  0
101132  1  0  0  0  0
101133  1  0  0  0  0
103134  1  0  0  0  0
104135  1  0  0  0  0
111136  1  0  0  0  0
111137  1  0  0  0  0
111138  1  0  0  0  0
112139  1  0  0  0  0
113140  1  0  0  0  0
114141  1  0  0  0  0
117142  1  0  0  0  0
117143  1  0  0  0  0
117144  1  0  0  0  0
 14146  4  0  0  0  0
145146  3  0  0  0  0
145147  4  0  0  0  0
 86148  4  0  0  0  0
147148  3  0  0  0  0
M  END
