 xtb: 6.5.1 (b24c23e)
          07302211083D

203232  0     0  0            999 V2000
   31.4727    0.0758    0.0226 Ni  0  0  0  0  0  0  0  0  0  0  0  0
   28.0840    0.1900    0.0750 C   0  0  0  0  0  0  0  0  0  0  0  0
   28.7346   -0.2646    1.2032 C   0  0  0  0  0  0  0  0  0  0  0  0
   28.0594   -0.7258    2.3780 C   0  0  0  0  0  0  0  0  0  0  0  0
   29.0167   -0.9927    3.2967 C   0  0  0  0  0  0  0  0  0  0  0  0
   30.2759   -0.6775    2.6870 C   0  0  0  0  0  0  0  0  0  0  0  0
   30.0945   -0.2728    1.3885 N   0  0  0  0  0  0  0  0  0  0  0  0
   31.4945   -0.7164    3.3521 C   0  0  0  0  0  0  0  0  0  0  0  0
   31.5122   -1.0744    4.7901 C   0  0  0  0  0  0  0  0  0  0  0  0
   30.8483   -0.2775    5.7258 C   0  0  0  0  0  0  0  0  0  0  0  0
   30.8720   -0.6062    7.0713 C   0  0  0  0  0  0  0  0  0  0  0  0
   31.5598   -1.7421    7.4665 C   0  0  0  0  0  0  0  0  0  0  0  0
   31.6040   -2.1573    9.1693 S   0  0  0  0  0  0  0  0  0  0  0  0
   31.3942   -0.9964    9.9834 O   0  0  0  0  0  0  0  0  0  0  0  0
   30.2580   -3.0641    9.2250 O   0  0  0  0  0  0  0  0  0  0  0  0
   32.7265   -3.0005    9.4578 O   0  0  0  0  0  0  0  0  0  0  0  0
   32.2272   -2.5520    6.5622 C   0  0  0  0  0  0  0  0  0  0  0  0
   32.2019   -2.2107    5.2201 C   0  0  0  0  0  0  0  0  0  0  0  0
   32.7012   -0.4270    2.7278 C   0  0  0  0  0  0  0  0  0  0  0  0
   33.9600   -0.3779    3.4081 C   0  0  0  0  0  0  0  0  0  0  0  0
   34.9062   -0.1590    2.4638 C   0  0  0  0  0  0  0  0  0  0  0  0
   32.8715   -0.1952    1.3825 N   0  0  0  0  0  0  0  0  0  0  0  0
   34.2236   -0.0708    1.2123 C   0  0  0  0  0  0  0  0  0  0  0  0
   34.8834    0.0232   -0.0157 C   0  0  0  0  0  0  0  0  0  0  0  0
   34.2002    0.1231   -1.2305 C   0  0  0  0  0  0  0  0  0  0  0  0
   34.8566    0.1662   -2.4982 C   0  0  0  0  0  0  0  0  0  0  0  0
   33.8945    0.3835   -3.4270 C   0  0  0  0  0  0  0  0  0  0  0  0
   32.6535    0.4851   -2.7200 C   0  0  0  0  0  0  0  0  0  0  0  0
   32.8485    0.2791   -1.3737 N   0  0  0  0  0  0  0  0  0  0  0  0
   31.4436    0.8096   -3.3203 C   0  0  0  0  0  0  0  0  0  0  0  0
   31.4343    1.1288   -4.7673 C   0  0  0  0  0  0  0  0  0  0  0  0
   30.6927    0.3491   -5.6580 C   0  0  0  0  0  0  0  0  0  0  0  0
   30.6844    0.6438   -7.0116 C   0  0  0  0  0  0  0  0  0  0  0  0
   31.4216    1.7271   -7.4607 C   0  0  0  0  0  0  0  0  0  0  0  0
   31.4068    2.1152   -9.1706 S   0  0  0  0  0  0  0  0  0  0  0  0
   31.6858    3.5053   -9.3856 O   0  0  0  0  0  0  0  0  0  0  0  0
   32.7233    1.2761   -9.6196 O   0  0  0  0  0  0  0  0  0  0  0  0
   30.2585    1.5403   -9.8050 O   0  0  0  0  0  0  0  0  0  0  0  0
   32.1611    2.5232   -6.6009 C   0  0  0  0  0  0  0  0  0  0  0  0
   32.1662    2.2166   -5.2503 C   0  0  0  0  0  0  0  0  0  0  0  0
   30.2454    0.8564   -2.6191 C   0  0  0  0  0  0  0  0  0  0  0  0
   28.9916    1.2459   -3.1962 C   0  0  0  0  0  0  0  0  0  0  0  0
   28.0499    1.0733   -2.2397 C   0  0  0  0  0  0  0  0  0  0  0  0
   28.7294    0.5879   -1.0772 C   0  0  0  0  0  0  0  0  0  0  0  0
   30.0797    0.4939   -1.3063 N   0  0  0  0  0  0  0  0  0  0  0  0
   27.0012    0.2305    0.0925 H   0  0  0  0  0  0  0  0  0  0  0  0
   26.9896   -0.8268    2.4678 H   0  0  0  0  0  0  0  0  0  0  0  0
   28.8948   -1.3697    4.2992 H   0  0  0  0  0  0  0  0  0  0  0  0
   30.3268    0.6138    5.3970 H   0  0  0  0  0  0  0  0  0  0  0  0
   30.3720    0.0109    7.8072 H   0  0  0  0  0  0  0  0  0  0  0  0
   30.1011   -3.3747   10.1251 H   0  0  0  0  0  0  0  0  0  0  0  0
   32.7596   -3.4296    6.9068 H   0  0  0  0  0  0  0  0  0  0  0  0
   32.7109   -2.8344    4.4944 H   0  0  0  0  0  0  0  0  0  0  0  0
   34.0917   -0.4901    4.4719 H   0  0  0  0  0  0  0  0  0  0  0  0
   35.9732   -0.0675    2.5870 H   0  0  0  0  0  0  0  0  0  0  0  0
   35.9179    0.0447   -2.6428 H   0  0  0  0  0  0  0  0  0  0  0  0
   34.0052    0.4653   -4.4958 H   0  0  0  0  0  0  0  0  0  0  0  0
   30.1312   -0.5004   -5.2870 H   0  0  0  0  0  0  0  0  0  0  0  0
   30.1133    0.0462   -7.7110 H   0  0  0  0  0  0  0  0  0  0  0  0
   33.0138    1.5571  -10.4958 H   0  0  0  0  0  0  0  0  0  0  0  0
   32.7158    3.3702   -6.9847 H   0  0  0  0  0  0  0  0  0  0  0  0
   32.7286    2.8330   -4.5588 H   0  0  0  0  0  0  0  0  0  0  0  0
   28.8629    1.6075   -4.2034 H   0  0  0  0  0  0  0  0  0  0  0  0
   26.9879    1.2505   -2.2972 H   0  0  0  0  0  0  0  0  0  0  0  0
   63.4706    0.0615   -0.0004 Ni  0  0  0  0  0  0  0  0  0  0  0  0
   66.8601    0.1915   -0.0126 C   0  0  0  0  0  0  0  0  0  0  0  0
   66.2073    0.1944   -1.2277 C   0  0  0  0  0  0  0  0  0  0  0  0
   66.8815    0.2129   -2.4901 C   0  0  0  0  0  0  0  0  0  0  0  0
   65.9229    0.3049   -3.4410 C   0  0  0  0  0  0  0  0  0  0  0  0
   64.6638    0.3586   -2.7565 C   0  0  0  0  0  0  0  0  0  0  0  0
   64.8469    0.2490   -1.4011 N   0  0  0  0  0  0  0  0  0  0  0  0
   63.4430    0.5546   -3.3888 C   0  0  0  0  0  0  0  0  0  0  0  0
   63.4248    0.7578   -4.8569 C   0  0  0  0  0  0  0  0  0  0  0  0
   64.0713    1.8577   -5.4257 C   0  0  0  0  0  0  0  0  0  0  0  0
   64.0487    2.0542   -6.7968 C   0  0  0  0  0  0  0  0  0  0  0  0
   63.3794    1.1358   -7.5893 C   0  0  0  0  0  0  0  0  0  0  0  0
   63.3383    1.3840   -9.3244 S   0  0  0  0  0  0  0  0  0  0  0  0
   63.5336    2.7669   -9.6461 O   0  0  0  0  0  0  0  0  0  0  0  0
   64.6940    0.5767   -9.7089 O   0  0  0  0  0  0  0  0  0  0  0  0
   62.2261    0.6963   -9.9113 O   0  0  0  0  0  0  0  0  0  0  0  0
   62.7290    0.0358   -7.0544 C   0  0  0  0  0  0  0  0  0  0  0  0
   62.7531   -0.1478   -5.6817 C   0  0  0  0  0  0  0  0  0  0  0  0
   62.2356    0.5749   -2.7028 C   0  0  0  0  0  0  0  0  0  0  0  0
   60.9730    0.8500   -3.3198 C   0  0  0  0  0  0  0  0  0  0  0  0
   60.0284    0.6974   -2.3612 C   0  0  0  0  0  0  0  0  0  0  0  0
   62.0685    0.2980   -1.3657 N   0  0  0  0  0  0  0  0  0  0  0  0
   60.7157    0.3359   -1.1623 C   0  0  0  0  0  0  0  0  0  0  0  0
   60.0595   -0.0153    0.0197 C   0  0  0  0  0  0  0  0  0  0  0  0
   60.7439   -0.3473    1.1912 C   0  0  0  0  0  0  0  0  0  0  0  0
   60.0881   -0.7567    2.3922 C   0  0  0  0  0  0  0  0  0  0  0  0
   61.0515   -0.8905    3.3349 C   0  0  0  0  0  0  0  0  0  0  0  0
   62.2929   -0.5496    2.7080 C   0  0  0  0  0  0  0  0  0  0  0  0
   62.0964   -0.2569    1.3781 N   0  0  0  0  0  0  0  0  0  0  0  0
   63.5058   -0.4775    3.3808 C   0  0  0  0  0  0  0  0  0  0  0  0
   63.5200   -0.7121    4.8441 C   0  0  0  0  0  0  0  0  0  0  0  0
   64.2506   -1.7748    5.3810 C   0  0  0  0  0  0  0  0  0  0  0  0
   64.2663   -1.9977    6.7482 C   0  0  0  0  0  0  0  0  0  0  0  0
   63.5472   -1.1445    7.5691 C   0  0  0  0  0  0  0  0  0  0  0  0
   63.5728   -1.4113    9.3021 S   0  0  0  0  0  0  0  0  0  0  0  0
   63.3092   -0.1951   10.0148 O   0  0  0  0  0  0  0  0  0  0  0  0
   62.2491   -2.3450    9.4227 O   0  0  0  0  0  0  0  0  0  0  0  0
   64.7177   -2.1883    9.6715 O   0  0  0  0  0  0  0  0  0  0  0  0
   62.8183   -0.0785    7.0669 C   0  0  0  0  0  0  0  0  0  0  0  0
   62.8058    0.1322    5.6980 C   0  0  0  0  0  0  0  0  0  0  0  0
   64.7044   -0.1876    2.7416 C   0  0  0  0  0  0  0  0  0  0  0  0
   65.9612   -0.0484    3.4184 C   0  0  0  0  0  0  0  0  0  0  0  0
   66.9011    0.1418    2.4636 C   0  0  0  0  0  0  0  0  0  0  0  0
   66.2175    0.1279    1.2061 C   0  0  0  0  0  0  0  0  0  0  0  0
   64.8670   -0.0389    1.3874 N   0  0  0  0  0  0  0  0  0  0  0  0
   67.9428    0.2361   -0.0159 H   0  0  0  0  0  0  0  0  0  0  0  0
   67.9516    0.1595   -2.6120 H   0  0  0  0  0  0  0  0  0  0  0  0
   66.0436    0.3332   -4.5117 H   0  0  0  0  0  0  0  0  0  0  0  0
   64.5786    2.5707   -4.7864 H   0  0  0  0  0  0  0  0  0  0  0  0
   64.5355    2.9098   -7.2477 H   0  0  0  0  0  0  0  0  0  0  0  0
   64.8367    0.5978  -10.6630 H   0  0  0  0  0  0  0  0  0  0  0  0
   62.2107   -0.6590   -7.7032 H   0  0  0  0  0  0  0  0  0  0  0  0
   62.2575   -1.0058   -5.2428 H   0  0  0  0  0  0  0  0  0  0  0  0
   60.8380    1.1301   -4.3516 H   0  0  0  0  0  0  0  0  0  0  0  0
   58.9599    0.8128   -2.4435 H   0  0  0  0  0  0  0  0  0  0  0  0
   59.0262   -0.9169    2.4857 H   0  0  0  0  0  0  0  0  0  0  0  0
   60.9417   -1.1957    4.3627 H   0  0  0  0  0  0  0  0  0  0  0  0
   64.7982   -2.4365    4.7200 H   0  0  0  0  0  0  0  0  0  0  0  0
   64.8294   -2.8180    7.1752 H   0  0  0  0  0  0  0  0  0  0  0  0
   61.9506   -2.3832   10.3395 H   0  0  0  0  0  0  0  0  0  0  0  0
   62.2778    0.5762    7.7389 H   0  0  0  0  0  0  0  0  0  0  0  0
   62.2518    0.9672    5.2853 H   0  0  0  0  0  0  0  0  0  0  0  0
   66.0930   -0.0881    4.4874 H   0  0  0  0  0  0  0  0  0  0  0  0
   67.9642    0.2792    2.5795 H   0  0  0  0  0  0  0  0  0  0  0  0
   40.0853   -0.0146   -0.0529 C   0  0  0  0  0  0  0  0  0  0  0  0
   38.8578   -0.0105   -0.0473 C   0  0  0  0  0  0  0  0  0  0  0  0
   37.5122    0.0007   -0.0401 C   0  0  0  0  0  0  0  0  0  0  0  0
   36.2892    0.0095   -0.0294 C   0  0  0  0  0  0  0  0  0  0  0  0
   41.4309   -0.0220   -0.0521 C   0  0  0  0  0  0  0  0  0  0  0  0
   42.6541   -0.0247   -0.0499 C   0  0  0  0  0  0  0  0  0  0  0  0
   56.0842   -0.0649    0.0264 C   0  0  0  0  0  0  0  0  0  0  0  0
   54.8570   -0.0731    0.0213 C   0  0  0  0  0  0  0  0  0  0  0  0
   53.5110   -0.0744    0.0123 C   0  0  0  0  0  0  0  0  0  0  0  0
   52.2881   -0.0688    0.0077 C   0  0  0  0  0  0  0  0  0  0  0  0
   57.4304   -0.0543    0.0254 C   0  0  0  0  0  0  0  0  0  0  0  0
   58.6530   -0.0387    0.0273 C   0  0  0  0  0  0  0  0  0  0  0  0
   47.4710   -0.0431   -0.0271 Ni  0  0  0  0  0  0  0  0  0  0  0  0
   44.0594   -0.0295   -0.0448 C   0  0  0  0  0  0  0  0  0  0  0  0
   44.7330    0.9185    0.7308 C   0  0  0  0  0  0  0  0  0  0  0  0
   44.0690    1.8774    1.5549 C   0  0  0  0  0  0  0  0  0  0  0  0
   45.0249    2.7153    2.0243 C   0  0  0  0  0  0  0  0  0  0  0  0
   46.2697    2.2694    1.4764 C   0  0  0  0  0  0  0  0  0  0  0  0
   46.0839    1.1341    0.7218 N   0  0  0  0  0  0  0  0  0  0  0  0
   47.4745    2.9439    1.6281 C   0  0  0  0  0  0  0  0  0  0  0  0
   47.4749    4.2407    2.3448 C   0  0  0  0  0  0  0  0  0  0  0  0
   48.2229    4.3992    3.5139 C   0  0  0  0  0  0  0  0  0  0  0  0
   48.2236    5.6085    4.1895 C   0  0  0  0  0  0  0  0  0  0  0  0
   47.4731    6.6553    3.6797 C   0  0  0  0  0  0  0  0  0  0  0  0
   47.4785    8.1937    4.5216 S   0  0  0  0  0  0  0  0  0  0  0  0
   47.1998    9.2744    3.6214 O   0  0  0  0  0  0  0  0  0  0  0  0
   46.1582    7.9699    5.4404 O   0  0  0  0  0  0  0  0  0  0  0  0
   48.6228    8.2913    5.3771 O   0  0  0  0  0  0  0  0  0  0  0  0
   46.7272    6.5307    2.5186 C   0  0  0  0  0  0  0  0  0  0  0  0
   46.7288    5.3154    1.8544 C   0  0  0  0  0  0  0  0  0  0  0  0
   48.6784    2.4545    1.1378 C   0  0  0  0  0  0  0  0  0  0  0  0
   49.9254    3.1517    1.2267 C   0  0  0  0  0  0  0  0  0  0  0  0
   50.8796    2.3051    0.7695 C   0  0  0  0  0  0  0  0  0  0  0  0
   48.8612    1.2114    0.5774 N   0  0  0  0  0  0  0  0  0  0  0  0
   50.2124    1.0997    0.3934 C   0  0  0  0  0  0  0  0  0  0  0  0
   50.8822   -0.0614   -0.0016 C   0  0  0  0  0  0  0  0  0  0  0  0
   50.2055   -1.2149   -0.4074 C   0  0  0  0  0  0  0  0  0  0  0  0
   50.8652   -2.4266   -0.7763 C   0  0  0  0  0  0  0  0  0  0  0  0
   49.9092   -3.2607   -1.2523 C   0  0  0  0  0  0  0  0  0  0  0  0
   48.6688   -2.5498   -1.1811 C   0  0  0  0  0  0  0  0  0  0  0  0
   48.8563   -1.3110   -0.6129 N   0  0  0  0  0  0  0  0  0  0  0  0
   47.4677   -3.0242   -1.6928 C   0  0  0  0  0  0  0  0  0  0  0  0
   47.4686   -4.3139   -2.4221 C   0  0  0  0  0  0  0  0  0  0  0  0
   48.2348   -4.4647   -3.5805 C   0  0  0  0  0  0  0  0  0  0  0  0
   48.2373   -5.6658   -4.2704 C   0  0  0  0  0  0  0  0  0  0  0  0
   47.4698   -6.7122   -3.7857 C   0  0  0  0  0  0  0  0  0  0  0  0
   47.4765   -8.2396   -4.6474 S   0  0  0  0  0  0  0  0  0  0  0  0
   47.1623   -9.3285   -3.7689 O   0  0  0  0  0  0  0  0  0  0  0  0
   46.1825   -7.9864   -5.5957 O   0  0  0  0  0  0  0  0  0  0  0  0
   48.6403   -8.3410   -5.4760 O   0  0  0  0  0  0  0  0  0  0  0  0
   46.7060   -6.5955   -2.6356 C   0  0  0  0  0  0  0  0  0  0  0  0
   46.7064   -5.3882   -1.9566 C   0  0  0  0  0  0  0  0  0  0  0  0
   46.2671   -2.3401   -1.5527 C   0  0  0  0  0  0  0  0  0  0  0  0
   45.0246   -2.7732   -2.1161 C   0  0  0  0  0  0  0  0  0  0  0  0
   44.0702   -1.9310   -1.6511 C   0  0  0  0  0  0  0  0  0  0  0  0
   44.7332   -0.9811   -0.8159 C   0  0  0  0  0  0  0  0  0  0  0  0
   46.0822   -1.2071   -0.7944 N   0  0  0  0  0  0  0  0  0  0  0  0
   43.0068    1.8966    1.7375 H   0  0  0  0  0  0  0  0  0  0  0  0
   44.9076    3.5592    2.6844 H   0  0  0  0  0  0  0  0  0  0  0  0
   48.7951    3.5642    3.9010 H   0  0  0  0  0  0  0  0  0  0  0  0
   48.7991    5.7423    5.0968 H   0  0  0  0  0  0  0  0  0  0  0  0
   45.8564    8.8135    5.7990 H   0  0  0  0  0  0  0  0  0  0  0  0
   46.1624    7.3739    2.1413 H   0  0  0  0  0  0  0  0  0  0  0  0
   46.1612    5.1997    0.9384 H   0  0  0  0  0  0  0  0  0  0  0  0
   50.0452    4.1592    1.5901 H   0  0  0  0  0  0  0  0  0  0  0  0
   51.9426    2.4666    0.6910 H   0  0  0  0  0  0  0  0  0  0  0  0
   51.9248   -2.6002   -0.6810 H   0  0  0  0  0  0  0  0  0  0  0  0
   50.0235   -4.2683   -1.6171 H   0  0  0  0  0  0  0  0  0  0  0  0
   48.8201   -3.6299   -3.9477 H   0  0  0  0  0  0  0  0  0  0  0  0
   48.8268   -5.7936   -5.1696 H   0  0  0  0  0  0  0  0  0  0  0  0
   45.8830   -8.8199   -5.9787 H   0  0  0  0  0  0  0  0  0  0  0  0
   46.1283   -7.4385   -2.2778 H   0  0  0  0  0  0  0  0  0  0  0  0
   46.1251   -5.2791   -1.0486 H   0  0  0  0  0  0  0  0  0  0  0  0
   44.9076   -3.6126   -2.7819 H   0  0  0  0  0  0  0  0  0  0  0  0
   43.0098   -1.9412   -1.8446 H   0  0  0  0  0  0  0  0  0  0  0  0
  2  3  4  0  0  0  0
  3  4  4  0  0  0  0
  4  5  2  0  0  0  0
  5  6  4  0  0  0  0
  1  7  1  0  0  0  0
  3  7  4  0  0  0  0
  6  7  4  0  0  0  0
  6  8  4  0  0  0  0
  8  9  1  0  0  0  0
  9 10  4  0  0  0  0
 10 11  4  0  0  0  0
 11 12  4  0  0  0  0
 12 13  1  0  0  0  0
 13 14  2  0  0  0  0
 13 15  1  0  0  0  0
 13 16  2  0  0  0  0
 12 17  4  0  0  0  0
  9 18  4  0  0  0  0
 17 18  4  0  0  0  0
  8 19  4  0  0  0  0
 19 20  4  0  0  0  0
 20 21  2  0  0  0  0
  1 22  1  0  0  0  0
 19 22  4  0  0  0  0
 21 23  4  0  0  0  0
 22 23  4  0  0  0  0
 23 24  4  0  0  0  0
 24 25  4  0  0  0  0
 25 26  4  0  0  0  0
 26 27  2  0  0  0  0
 27 28  4  0  0  0  0
  1 29  1  0  0  0  0
 25 29  4  0  0  0  0
 28 29  4  0  0  0  0
 28 30  4  0  0  0  0
 30 31  1  0  0  0  0
 31 32  4  0  0  0  0
 32 33  4  0  0  0  0
 33 34  4  0  0  0  0
 34 35  1  0  0  0  0
 35 36  2  0  0  0  0
 35 37  1  0  0  0  0
 35 38  2  0  0  0  0
 34 39  4  0  0  0  0
 31 40  4  0  0  0  0
 39 40  4  0  0  0  0
 30 41  4  0  0  0  0
 41 42  4  0  0  0  0
 42 43  2  0  0  0  0
  2 44  4  0  0  0  0
 43 44  4  0  0  0  0
  1 45  1  0  0  0  0
 41 45  4  0  0  0  0
 44 45  4  0  0  0  0
  2 46  1  0  0  0  0
  4 47  1  0  0  0  0
  5 48  1  0  0  0  0
 10 49  1  0  0  0  0
 11 50  1  0  0  0  0
 15 51  1  0  0  0  0
 17 52  1  0  0  0  0
 18 53  1  0  0  0  0
 20 54  1  0  0  0  0
 21 55  1  0  0  0  0
 26 56  1  0  0  0  0
 27 57  1  0  0  0  0
 32 58  1  0  0  0  0
 33 59  1  0  0  0  0
 37 60  1  0  0  0  0
 39 61  1  0  0  0  0
 40 62  1  0  0  0  0
 42 63  1  0  0  0  0
 43 64  1  0  0  0  0
 66 67  4  0  0  0  0
 67 68  4  0  0  0  0
 68 69  2  0  0  0  0
 69 70  4  0  0  0  0
 65 71  1  0  0  0  0
 67 71  4  0  0  0  0
 70 71  4  0  0  0  0
 70 72  4  0  0  0  0
 72 73  1  0  0  0  0
 73 74  4  0  0  0  0
 74 75  4  0  0  0  0
 75 76  4  0  0  0  0
 76 77  1  0  0  0  0
 77 78  2  0  0  0  0
 77 79  1  0  0  0  0
 77 80  2  0  0  0  0
 76 81  4  0  0  0  0
 73 82  4  0  0  0  0
 81 82  4  0  0  0  0
 72 83  4  0  0  0  0
 83 84  4  0  0  0  0
 84 85  2  0  0  0  0
 65 86  1  0  0  0  0
 83 86  4  0  0  0  0
 85 87  4  0  0  0  0
 86 87  4  0  0  0  0
 87 88  4  0  0  0  0
 88 89  4  0  0  0  0
 89 90  4  0  0  0  0
 90 91  2  0  0  0  0
 91 92  4  0  0  0  0
 65 93  1  0  0  0  0
 89 93  4  0  0  0  0
 92 93  4  0  0  0  0
 92 94  4  0  0  0  0
 94 95  1  0  0  0  0
 95 96  4  0  0  0  0
 96 97  4  0  0  0  0
 97 98  4  0  0  0  0
 98 99  1  0  0  0  0
 99100  2  0  0  0  0
 99101  1  0  0  0  0
 99102  2  0  0  0  0
 98103  4  0  0  0  0
 95104  4  0  0  0  0
103104  4  0  0  0  0
 94105  4  0  0  0  0
105106  4  0  0  0  0
106107  2  0  0  0  0
 66108  4  0  0  0  0
107108  4  0  0  0  0
 65109  1  0  0  0  0
105109  4  0  0  0  0
108109  4  0  0  0  0
 66110  1  0  0  0  0
 68111  1  0  0  0  0
 69112  1  0  0  0  0
 74113  1  0  0  0  0
 75114  1  0  0  0  0
 79115  1  0  0  0  0
 81116  1  0  0  0  0
 82117  1  0  0  0  0
 84118  1  0  0  0  0
 85119  1  0  0  0  0
 90120  1  0  0  0  0
 91121  1  0  0  0  0
 96122  1  0  0  0  0
 97123  1  0  0  0  0
101124  1  0  0  0  0
103125  1  0  0  0  0
104126  1  0  0  0  0
106127  1  0  0  0  0
107128  1  0  0  0  0
129130  3  0  0  0  0
130131  4  0  0  0  0
 24132  4  0  0  0  0
131132  3  0  0  0  0
129133  4  0  0  0  0
133134  3  0  0  0  0
135136  3  0  0  0  0
136137  4  0  0  0  0
137138  3  0  0  0  0
135139  4  0  0  0  0
 88140  4  0  0  0  0
139140  3  0  0  0  0
134142  4  0  0  0  0
142143  4  0  0  0  0
143144  4  0  0  0  0
144145  2  0  0  0  0
145146  4  0  0  0  0
141147  1  0  0  0  0
143147  4  0  0  0  0
146147  4  0  0  0  0
146148  4  0  0  0  0
148149  1  0  0  0  0
149150  4  0  0  0  0
150151  4  0  0  0  0
151152  4  0  0  0  0
152153  1  0  0  0  0
153154  2  0  0  0  0
153155  1  0  0  0  0
153156  2  0  0  0  0
152157  4  0  0  0  0
149158  4  0  0  0  0
157158  4  0  0  0  0
148159  4  0  0  0  0
159160  4  0  0  0  0
160161  2  0  0  0  0
141162  1  0  0  0  0
159162  4  0  0  0  0
161163  4  0  0  0  0
162163  4  0  0  0  0
138164  4  0  0  0  0
163164  4  0  0  0  0
164165  4  0  0  0  0
165166  4  0  0  0  0
166167  2  0  0  0  0
167168  4  0  0  0  0
141169  1  0  0  0  0
165169  4  0  0  0  0
168169  4  0  0  0  0
168170  4  0  0  0  0
170171  1  0  0  0  0
171172  4  0  0  0  0
172173  4  0  0  0  0
173174  4  0  0  0  0
174175  1  0  0  0  0
175176  2  0  0  0  0
175177  1  0  0  0  0
175178  2  0  0  0  0
174179  4  0  0  0  0
171180  4  0  0  0  0
179180  4  0  0  0  0
170181  4  0  0  0  0
181182  4  0  0  0  0
182183  2  0  0  0  0
142184  4  0  0  0  0
183184  4  0  0  0  0
141185  1  0  0  0  0
181185  4  0  0  0  0
184185  4  0  0  0  0
144186  1  0  0  0  0
145187  1  0  0  0  0
150188  1  0  0  0  0
151189  1  0  0  0  0
155190  1  0  0  0  0
157191  1  0  0  0  0
158192  1  0  0  0  0
160193  1  0  0  0  0
161194  1  0  0  0  0
166195  1  0  0  0  0
167196  1  0  0  0  0
172197  1  0  0  0  0
173198  1  0  0  0  0
177199  1  0  0  0  0
179200  1  0  0  0  0
180201  1  0  0  0  0
182202  1  0  0  0  0
183203  1  0  0  0  0
M  END
